REMARK VINA RESULT:      -7.3     13.315     15.242
REMARK  10 active torsions:
REMARK  status: ('A' for Active; 'I' for Inactive)
REMARK    1  A    between atoms: O_3  and  C_8 
REMARK    2  A    between atoms: O_4  and  C_9 
REMARK    3  A    between atoms: O_5  and  C_10 
REMARK    4  A    between atoms: O_6  and  C_14 
REMARK    5  A    between atoms: O_7  and  C_26 
REMARK    6  A    between atoms: O_7  and  C_27 
REMARK    7  A    between atoms: C_11  and  C_13 
REMARK    8  A    between atoms: C_12  and  C_14 
REMARK    9  A    between atoms: C_17  and  C_19 
REMARK   10  A    between atoms: C_19  and  C_21 
ROOT
HETATM    1 Cl   UNK     0      41.513  64.174  53.349  0.00  0.00    -0.084 Cl
HETATM    2  C   UNK     0      37.354  64.185  55.103  0.00  0.00    -0.026 A 
HETATM    3  C   UNK     0      37.669  63.280  54.090  0.00  0.00     0.019 A 
HETATM    4  C   UNK     0      38.319  65.077  55.568  0.00  0.00     0.011 A 
HETATM    5  C   UNK     0      38.950  63.268  53.540  0.00  0.00    -0.032 A 
HETATM    6  C   UNK     0      39.600  65.066  55.018  0.00  0.00     0.025 A 
HETATM    7  C   UNK     0      39.916  64.161  54.005  0.00  0.00     0.040 A 
ENDROOT
BRANCH   5   8
HETATM    8  C   UNK     0      39.249  62.283  52.456  0.00  0.00     0.078 C 
BRANCH   8   9
HETATM    9  C   UNK     0      38.603  60.930  52.664  0.00  0.00    -0.054 A 
HETATM   10  C   UNK     0      37.561  60.545  51.839  0.00  0.00     0.010 A 
HETATM   11  C   UNK     0      36.966  59.299  52.033  0.00  0.00     0.037 A 
HETATM   12  C   UNK     0      37.422  58.458  53.048  0.00  0.00     0.068 A 
HETATM   13  C   UNK     0      38.474  58.863  53.870  0.00  0.00     0.037 A 
HETATM   14  C   UNK     0      39.069  60.110  53.676  0.00  0.00     0.010 A 
BRANCH  12  15
HETATM   15  O   UNK     0      36.841  57.240  53.235  0.00  0.00    -0.352 OA
BRANCH  15  16
HETATM   16  C   UNK     0      35.907  57.125  54.306  0.00  0.00     0.171 C 
HETATM   17  C   UNK     0      35.311  55.733  54.292  0.00  0.00     0.034 C 
ENDBRANCH  15  16
ENDBRANCH  12  15
ENDBRANCH   8   9
ENDBRANCH   5   8
BRANCH   2  18
HETATM   18  C   UNK     0      35.960  64.198  55.700  0.00  0.00     0.186 C 
HETATM   19  O   UNK     0      35.272  65.337  55.175  0.00  0.00    -0.368 OA
HETATM   20  C   UNK     0      33.910  65.403  55.598  0.00  0.00     0.177 C 
HETATM   21  C   UNK     0      33.840  65.552  57.119  0.00  0.00     0.180 C 
HETATM   22  C   UNK     0      34.586  64.412  57.811  0.00  0.00     0.181 C 
HETATM   23  C   UNK     0      35.995  64.239  57.236  0.00  0.00     0.182 C 
BRANCH  20  24
HETATM   24  C   UNK     0      33.266  66.587  54.884  0.00  0.00     0.198 C 
BRANCH  24  25
HETATM   25  O   UNK     0      32.763  67.483  55.859  0.00  0.00    -0.398 OA
HETATM   26  H   UNK     0      32.951  67.101  56.733  0.00  0.00     0.209 HD
ENDBRANCH  24  25
ENDBRANCH  20  24
BRANCH  21  27
HETATM   27  O   UNK     0      32.475  65.539  57.530  0.00  0.00    -0.390 OA
HETATM   28  H   UNK     0      31.927  65.762  56.758  0.00  0.00     0.210 HD
ENDBRANCH  21  27
BRANCH  22  29
HETATM   29  O   UNK     0      34.677  64.724  59.202  0.00  0.00    -0.390 OA
HETATM   30  H   UNK     0      33.974  65.365  59.402  0.00  0.00     0.210 HD
ENDBRANCH  22  29
BRANCH  23  31
HETATM   31  O   UNK     0      36.544  63.012  57.715  0.00  0.00    -0.390 OA
HETATM   32  H   UNK     0      37.088  62.628  57.006  0.00  0.00     0.210 HD
ENDBRANCH  23  31
ENDBRANCH   2  18
TORSDOF 10
