REMARK VINA RESULT:      -7.3      0.000      0.000
REMARK  10 active torsions:
REMARK  status: ('A' for Active; 'I' for Inactive)
REMARK    1  A    between atoms: O_3  and  C_8 
REMARK    2  A    between atoms: O_4  and  C_9 
REMARK    3  A    between atoms: O_5  and  C_10 
REMARK    4  A    between atoms: O_6  and  C_14 
REMARK    5  A    between atoms: O_7  and  C_26 
REMARK    6  A    between atoms: O_7  and  C_27 
REMARK    7  A    between atoms: C_11  and  C_13 
REMARK    8  A    between atoms: C_12  and  C_14 
REMARK    9  A    between atoms: C_17  and  C_19 
REMARK   10  A    between atoms: C_19  and  C_21 
ROOT
HETATM    1 Cl   UNK     0      46.908  50.567  58.477  0.00  0.00    -0.084 Cl
HETATM    2  C   UNK     0      47.504  53.643  61.725  0.00  0.00    -0.026 A 
HETATM    3  C   UNK     0      46.852  54.006  60.548  0.00  0.00     0.019 A 
HETATM    4  C   UNK     0      47.966  52.339  61.894  0.00  0.00     0.011 A 
HETATM    5  C   UNK     0      46.662  53.065  59.537  0.00  0.00    -0.032 A 
HETATM    6  C   UNK     0      47.777  51.397  60.884  0.00  0.00     0.025 A 
HETATM    7  C   UNK     0      47.125  51.759  59.705  0.00  0.00     0.040 A 
ENDROOT
BRANCH   5   8
HETATM    8  C   UNK     0      45.959  53.493  58.290  0.00  0.00     0.078 C 
BRANCH   8   9
HETATM    9  C   UNK     0      46.806  54.349  57.373  0.00  0.00    -0.054 A 
HETATM   10  C   UNK     0      46.214  55.395  56.687  0.00  0.00     0.010 A 
HETATM   11  C   UNK     0      46.995  56.182  55.842  0.00  0.00     0.037 A 
HETATM   12  C   UNK     0      48.356  55.912  55.697  0.00  0.00     0.068 A 
HETATM   13  C   UNK     0      48.936  54.854  56.396  0.00  0.00     0.037 A 
HETATM   14  C   UNK     0      48.154  54.066  57.242  0.00  0.00     0.010 A 
BRANCH  12  15
HETATM   15  O   UNK     0      49.119  56.683  54.873  0.00  0.00    -0.352 OA
BRANCH  15  16
HETATM   16  C   UNK     0      48.643  57.998  54.590  0.00  0.00     0.171 C 
HETATM   17  C   UNK     0      49.714  59.000  54.964  0.00  0.00     0.034 C 
ENDBRANCH  15  16
ENDBRANCH  12  15
ENDBRANCH   8   9
ENDBRANCH   5   8
BRANCH   2  18
HETATM   18  C   UNK     0      47.709  54.668  62.824  0.00  0.00     0.186 C 
HETATM   19  O   UNK     0      46.453  54.856  63.483  0.00  0.00    -0.368 OA
HETATM   20  C   UNK     0      46.542  55.737  64.603  0.00  0.00     0.177 C 
HETATM   21  C   UNK     0      46.972  57.131  64.141  0.00  0.00     0.180 C 
HETATM   22  C   UNK     0      48.291  57.065  63.372  0.00  0.00     0.181 C 
HETATM   23  C   UNK     0      48.244  55.999  62.274  0.00  0.00     0.182 C 
BRANCH  20  24
HETATM   24  C   UNK     0      45.175  55.761  65.278  0.00  0.00     0.198 C 
BRANCH  24  25
HETATM   25  O   UNK     0      45.299  56.421  66.525  0.00  0.00    -0.398 OA
HETATM   26  H   UNK     0      45.886  57.185  66.396  0.00  0.00     0.209 HD
ENDBRANCH  24  25
ENDBRANCH  20  24
BRANCH  21  27
HETATM   27  O   UNK     0      47.131  57.974  65.279  0.00  0.00    -0.390 OA
HETATM   28  H   UNK     0      47.970  58.455  65.182  0.00  0.00     0.210 HD
ENDBRANCH  21  27
BRANCH  22  29
HETATM   29  O   UNK     0      48.521  58.345  62.781  0.00  0.00    -0.390 OA
HETATM   30  H   UNK     0      48.701  58.201  61.837  0.00  0.00     0.210 HD
ENDBRANCH  22  29
BRANCH  23  31
HETATM   31  O   UNK     0      49.564  55.790  61.773  0.00  0.00    -0.390 OA
HETATM   32  H   UNK     0      50.024  55.186  62.380  0.00  0.00     0.210 HD
ENDBRANCH  23  31
ENDBRANCH   2  18
TORSDOF 10
