REMARK VINA RESULT:      -7.3     12.031     15.072
REMARK  10 active torsions:
REMARK  status: ('A' for Active; 'I' for Inactive)
REMARK    1  A    between atoms: O_3  and  C_8 
REMARK    2  A    between atoms: O_4  and  C_9 
REMARK    3  A    between atoms: O_5  and  C_10 
REMARK    4  A    between atoms: O_6  and  C_14 
REMARK    5  A    between atoms: O_7  and  C_26 
REMARK    6  A    between atoms: O_7  and  C_27 
REMARK    7  A    between atoms: C_11  and  C_13 
REMARK    8  A    between atoms: C_12  and  C_14 
REMARK    9  A    between atoms: C_17  and  C_19 
REMARK   10  A    between atoms: C_19  and  C_21 
ROOT
HETATM    1 Cl   UNK     0      39.637  63.235  50.942  0.00  0.00    -0.084 Cl
HETATM    2  C   UNK     0      36.835  64.970  54.025  0.00  0.00    -0.026 A 
HETATM    3  C   UNK     0      37.457  63.748  54.275  0.00  0.00     0.019 A 
HETATM    4  C   UNK     0      37.079  65.647  52.832  0.00  0.00     0.011 A 
HETATM    5  C   UNK     0      38.325  63.202  53.330  0.00  0.00    -0.032 A 
HETATM    6  C   UNK     0      37.946  65.102  51.886  0.00  0.00     0.025 A 
HETATM    7  C   UNK     0      38.569  63.879  52.135  0.00  0.00     0.040 A 
ENDROOT
BRANCH   5   8
HETATM    8  C   UNK     0      38.973  61.890  53.634  0.00  0.00     0.078 C 
BRANCH   8   9
HETATM    9  C   UNK     0      38.006  60.726  53.679  0.00  0.00    -0.054 A 
HETATM   10  C   UNK     0      37.780  60.081  54.883  0.00  0.00     0.010 A 
HETATM   11  C   UNK     0      36.890  59.008  54.922  0.00  0.00     0.037 A 
HETATM   12  C   UNK     0      36.240  58.597  53.758  0.00  0.00     0.068 A 
HETATM   13  C   UNK     0      36.480  59.259  52.554  0.00  0.00     0.037 A 
HETATM   14  C   UNK     0      37.371  60.333  52.514  0.00  0.00     0.010 A 
BRANCH  12  15
HETATM   15  O   UNK     0      35.369  57.551  53.799  0.00  0.00    -0.352 OA
BRANCH  15  16
HETATM   16  C   UNK     0      35.745  56.425  54.590  0.00  0.00     0.171 C 
HETATM   17  C   UNK     0      34.937  55.223  54.151  0.00  0.00     0.034 C 
ENDBRANCH  15  16
ENDBRANCH  12  15
ENDBRANCH   8   9
ENDBRANCH   5   8
BRANCH   2  18
HETATM   18  C   UNK     0      35.892  65.564  55.054  0.00  0.00     0.186 C 
HETATM   19  O   UNK     0      35.365  64.486  55.834  0.00  0.00    -0.368 OA
HETATM   20  C   UNK     0      34.530  64.933  56.902  0.00  0.00     0.177 C 
HETATM   21  C   UNK     0      33.308  65.663  56.342  0.00  0.00     0.180 C 
HETATM   22  C   UNK     0      33.734  66.822  55.440  0.00  0.00     0.181 C 
HETATM   23  C   UNK     0      34.759  66.368  54.397  0.00  0.00     0.182 C 
BRANCH  20  24
HETATM   24  C   UNK     0      34.132  63.707  57.717  0.00  0.00     0.198 C 
BRANCH  24  25
HETATM   25  O   UNK     0      32.757  63.445  57.495  0.00  0.00    -0.398 OA
HETATM   26  H   UNK     0      32.515  62.672  58.033  0.00  0.00     0.209 HD
ENDBRANCH  24  25
ENDBRANCH  20  24
BRANCH  21  27
HETATM   27  O   UNK     0      32.527  66.169  57.421  0.00  0.00    -0.390 OA
HETATM   28  H   UNK     0      31.633  65.792  57.347  0.00  0.00     0.210 HD
ENDBRANCH  21  27
BRANCH  22  29
HETATM   29  O   UNK     0      32.569  67.316  54.777  0.00  0.00    -0.390 OA
HETATM   30  H   UNK     0      31.799  67.047  55.305  0.00  0.00     0.210 HD
ENDBRANCH  22  29
BRANCH  23  31
HETATM   31  O   UNK     0      35.321  67.519  53.768  0.00  0.00    -0.390 OA
HETATM   32  H   UNK     0      36.148  67.741  54.228  0.00  0.00     0.210 HD
ENDBRANCH  23  31
ENDBRANCH   2  18
TORSDOF 10
