REMARK VINA RESULT:      -7.1     44.267     46.967
REMARK  10 active torsions:
REMARK  status: ('A' for Active; 'I' for Inactive)
REMARK    1  A    between atoms: O_3  and  C_8 
REMARK    2  A    between atoms: O_4  and  C_9 
REMARK    3  A    between atoms: O_5  and  C_10 
REMARK    4  A    between atoms: O_6  and  C_14 
REMARK    5  A    between atoms: O_7  and  C_26 
REMARK    6  A    between atoms: O_7  and  C_27 
REMARK    7  A    between atoms: C_11  and  C_13 
REMARK    8  A    between atoms: C_12  and  C_14 
REMARK    9  A    between atoms: C_17  and  C_19 
REMARK   10  A    between atoms: C_19  and  C_21 
ROOT
HETATM    1 Cl   UNK     0      23.547  26.716  25.956  0.00  0.00    -0.084 Cl
HETATM    2  C   UNK     0      25.223  30.897  26.238  0.00  0.00    -0.026 A 
HETATM    3  C   UNK     0      25.585  30.084  25.165  0.00  0.00     0.019 A 
HETATM    4  C   UNK     0      24.349  30.419  27.212  0.00  0.00     0.011 A 
HETATM    5  C   UNK     0      25.074  28.790  25.067  0.00  0.00    -0.032 A 
HETATM    6  C   UNK     0      23.838  29.125  27.116  0.00  0.00     0.025 A 
HETATM    7  C   UNK     0      24.200  28.311  26.043  0.00  0.00     0.040 A 
ENDROOT
BRANCH   5   8
HETATM    8  C   UNK     0      25.486  27.949  23.903  0.00  0.00     0.078 C 
BRANCH   8   9
HETATM    9  C   UNK     0      26.938  27.522  23.940  0.00  0.00    -0.054 A 
HETATM   10  C   UNK     0      27.790  27.937  22.931  0.00  0.00     0.010 A 
HETATM   11  C   UNK     0      29.127  27.542  22.966  0.00  0.00     0.037 A 
HETATM   12  C   UNK     0      29.591  26.740  24.009  0.00  0.00     0.068 A 
HETATM   13  C   UNK     0      28.718  26.332  25.017  0.00  0.00     0.037 A 
HETATM   14  C   UNK     0      27.380  26.726  24.982  0.00  0.00     0.010 A 
BRANCH  12  15
HETATM   15  O   UNK     0      30.898  26.357  24.043  0.00  0.00    -0.352 OA
BRANCH  15  16
HETATM   16  C   UNK     0      31.642  26.482  22.832  0.00  0.00     0.171 C 
HETATM   17  C   UNK     0      32.726  25.425  22.809  0.00  0.00     0.034 C 
ENDBRANCH  15  16
ENDBRANCH  12  15
ENDBRANCH   8   9
ENDBRANCH   5   8
BRANCH   2  18
HETATM   18  C   UNK     0      25.778  32.304  26.342  0.00  0.00     0.186 C 
HETATM   19  O   UNK     0      24.723  33.156  26.799  0.00  0.00    -0.368 OA
HETATM   20  C   UNK     0      25.154  34.498  27.026  0.00  0.00     0.177 C 
HETATM   21  C   UNK     0      25.640  35.120  25.715  0.00  0.00     0.180 C 
HETATM   22  C   UNK     0      26.748  34.273  25.089  0.00  0.00     0.181 C 
HETATM   23  C   UNK     0      26.340  32.801  25.001  0.00  0.00     0.182 C 
BRANCH  20  24
HETATM   24  C   UNK     0      23.975  35.265  27.613  0.00  0.00     0.198 C 
BRANCH  24  25
HETATM   25  O   UNK     0      24.470  36.416  28.275  0.00  0.00    -0.398 OA
HETATM   26  H   UNK     0      23.738  37.052  28.345  0.00  0.00     0.209 HD
ENDBRANCH  24  25
ENDBRANCH  20  24
BRANCH  21  27
HETATM   27  O   UNK     0      26.137  36.431  25.974  0.00  0.00    -0.390 OA
HETATM   28  H   UNK     0      26.013  36.963  25.170  0.00  0.00     0.210 HD
ENDBRANCH  21  27
BRANCH  22  29
HETATM   29  O   UNK     0      26.999  34.776  23.776  0.00  0.00    -0.390 OA
HETATM   30  H   UNK     0      27.671  35.474  23.856  0.00  0.00     0.210 HD
ENDBRANCH  22  29
BRANCH  23  31
HETATM   31  O   UNK     0      27.488  32.020  24.669  0.00  0.00    -0.390 OA
HETATM   32  H   UNK     0      27.830  31.624  25.487  0.00  0.00     0.210 HD
ENDBRANCH  23  31
ENDBRANCH   2  18
TORSDOF 10
