REMARK VINA RESULT:      -6.9     33.220     35.568
REMARK  10 active torsions:
REMARK  status: ('A' for Active; 'I' for Inactive)
REMARK    1  A    between atoms: O_3  and  C_8 
REMARK    2  A    between atoms: O_4  and  C_9 
REMARK    3  A    between atoms: O_5  and  C_10 
REMARK    4  A    between atoms: O_6  and  C_14 
REMARK    5  A    between atoms: O_7  and  C_26 
REMARK    6  A    between atoms: O_7  and  C_27 
REMARK    7  A    between atoms: C_11  and  C_13 
REMARK    8  A    between atoms: C_12  and  C_14 
REMARK    9  A    between atoms: C_17  and  C_19 
REMARK   10  A    between atoms: C_19  and  C_21 
ROOT
HETATM    1 Cl   UNK     0      36.265  57.266  32.333  0.00  0.00    -0.084 Cl
HETATM    2  C   UNK     0      34.674  60.864  30.122  0.00  0.00    -0.026 A 
HETATM    3  C   UNK     0      34.261  59.588  29.742  0.00  0.00     0.019 A 
HETATM    4  C   UNK     0      35.570  61.023  31.177  0.00  0.00     0.011 A 
HETATM    5  C   UNK     0      34.746  58.469  30.417  0.00  0.00    -0.032 A 
HETATM    6  C   UNK     0      36.056  59.905  31.853  0.00  0.00     0.025 A 
HETATM    7  C   UNK     0      35.644  58.627  31.473  0.00  0.00     0.040 A 
ENDROOT
BRANCH   5   8
HETATM    8  C   UNK     0      34.280  57.117  29.980  0.00  0.00     0.078 C 
BRANCH   8   9
HETATM    9  C   UNK     0      35.107  56.517  28.864  0.00  0.00    -0.054 A 
HETATM   10  C   UNK     0      34.995  57.036  27.586  0.00  0.00     0.010 A 
HETATM   11  C   UNK     0      35.756  56.481  26.558  0.00  0.00     0.037 A 
HETATM   12  C   UNK     0      36.618  55.416  26.824  0.00  0.00     0.068 A 
HETATM   13  C   UNK     0      36.717  54.906  28.118  0.00  0.00     0.037 A 
HETATM   14  C   UNK     0      35.955  55.461  29.147  0.00  0.00     0.010 A 
BRANCH  12  15
HETATM   15  O   UNK     0      37.362  54.876  25.819  0.00  0.00    -0.352 OA
BRANCH  15  16
HETATM   16  C   UNK     0      38.455  54.041  26.198  0.00  0.00     0.171 C 
HETATM   17  C   UNK     0      39.687  54.462  25.425  0.00  0.00     0.034 C 
ENDBRANCH  15  16
ENDBRANCH  12  15
ENDBRANCH   8   9
ENDBRANCH   5   8
BRANCH   2  18
HETATM   18  C   UNK     0      34.145  62.081  29.387  0.00  0.00     0.186 C 
HETATM   19  O   UNK     0      32.894  62.439  29.982  0.00  0.00    -0.368 OA
HETATM   20  C   UNK     0      32.340  63.633  29.430  0.00  0.00     0.177 C 
HETATM   21  C   UNK     0      32.040  63.434  27.943  0.00  0.00     0.180 C 
HETATM   22  C   UNK     0      33.297  62.998  27.190  0.00  0.00     0.181 C 
HETATM   23  C   UNK     0      33.979  61.815  27.882  0.00  0.00     0.182 C 
BRANCH  20  24
HETATM   24  C   UNK     0      31.079  63.963  30.222  0.00  0.00     0.198 C 
BRANCH  24  25
HETATM   25  O   UNK     0      31.399  63.957  31.602  0.00  0.00    -0.398 OA
HETATM   26  H   UNK     0      30.942  64.710  32.013  0.00  0.00     0.209 HD
ENDBRANCH  24  25
ENDBRANCH  20  24
BRANCH  21  27
HETATM   27  O   UNK     0      31.562  64.658  27.392  0.00  0.00    -0.390 OA
HETATM   28  H   UNK     0      30.783  64.934  27.905  0.00  0.00     0.210 HD
ENDBRANCH  21  27
BRANCH  22  29
HETATM   29  O   UNK     0      32.909  62.615  25.869  0.00  0.00    -0.390 OA
HETATM   30  H   UNK     0      32.061  63.050  25.679  0.00  0.00     0.210 HD
ENDBRANCH  22  29
BRANCH  23  31
HETATM   31  O   UNK     0      35.271  61.623  27.307  0.00  0.00    -0.390 OA
HETATM   32  H   UNK     0      35.167  61.082  26.506  0.00  0.00     0.210 HD
ENDBRANCH  23  31
ENDBRANCH   2  18
TORSDOF 10
