REMARK VINA RESULT:      -7.7      3.639      5.894
REMARK  10 active torsions:
REMARK  status: ('A' for Active; 'I' for Inactive)
REMARK    1  A    between atoms: O_3  and  C_8 
REMARK    2  A    between atoms: O_4  and  C_9 
REMARK    3  A    between atoms: O_5  and  C_10 
REMARK    4  A    between atoms: O_6  and  C_14 
REMARK    5  A    between atoms: O_7  and  C_26 
REMARK    6  A    between atoms: O_7  and  C_27 
REMARK    7  A    between atoms: C_11  and  C_13 
REMARK    8  A    between atoms: C_12  and  C_14 
REMARK    9  A    between atoms: C_17  and  C_19 
REMARK   10  A    between atoms: C_19  and  C_21 
ROOT
HETATM    1 Cl   UNK     0      45.626  59.052  50.658  0.00  0.00    -0.084 Cl
HETATM    2  C   UNK     0      47.397  56.618  54.021  0.00  0.00    -0.026 A 
HETATM    3  C   UNK     0      46.692  57.785  54.316  0.00  0.00     0.019 A 
HETATM    4  C   UNK     0      47.550  56.210  52.697  0.00  0.00     0.011 A 
HETATM    5  C   UNK     0      46.141  58.545  53.285  0.00  0.00    -0.032 A 
HETATM    6  C   UNK     0      47.000  56.970  51.666  0.00  0.00     0.025 A 
HETATM    7  C   UNK     0      46.294  58.138  51.960  0.00  0.00     0.040 A 
ENDROOT
BRANCH   5   8
HETATM    8  C   UNK     0      45.393  59.789  53.641  0.00  0.00     0.078 C 
BRANCH   8   9
HETATM    9  C   UNK     0      46.285  60.966  53.970  0.00  0.00    -0.054 A 
HETATM   10  C   UNK     0      46.377  61.399  55.282  0.00  0.00     0.010 A 
HETATM   11  C   UNK     0      47.199  62.485  55.583  0.00  0.00     0.037 A 
HETATM   12  C   UNK     0      47.916  63.120  54.569  0.00  0.00     0.068 A 
HETATM   13  C   UNK     0      47.811  62.670  53.253  0.00  0.00     0.037 A 
HETATM   14  C   UNK     0      46.989  61.584  52.951  0.00  0.00     0.010 A 
BRANCH  12  15
HETATM   15  O   UNK     0      48.719  64.179  54.865  0.00  0.00    -0.352 OA
BRANCH  15  16
HETATM   16  C   UNK     0      48.421  64.907  56.055  0.00  0.00     0.171 C 
HETATM   17  C   UNK     0      48.229  66.367  55.704  0.00  0.00     0.034 C 
ENDBRANCH  15  16
ENDBRANCH  12  15
ENDBRANCH   8   9
ENDBRANCH   5   8
BRANCH   2  18
HETATM   18  C   UNK     0      47.995  55.792  55.143  0.00  0.00     0.186 C 
HETATM   19  O   UNK     0      46.966  55.563  56.111  0.00  0.00    -0.368 OA
HETATM   20  C   UNK     0      47.389  54.712  57.177  0.00  0.00     0.177 C 
HETATM   21  C   UNK     0      48.535  55.369  57.949  0.00  0.00     0.180 C 
HETATM   22  C   UNK     0      49.693  55.714  57.013  0.00  0.00     0.181 C 
HETATM   23  C   UNK     0      49.206  56.487  55.785  0.00  0.00     0.182 C 
BRANCH  20  24
HETATM   24  C   UNK     0      46.178  54.458  58.068  0.00  0.00     0.198 C 
BRANCH  24  25
HETATM   25  O   UNK     0      46.266  53.141  58.583  0.00  0.00    -0.398 OA
HETATM   26  H   UNK     0      47.206  52.894  58.599  0.00  0.00     0.209 HD
ENDBRANCH  24  25
ENDBRANCH  20  24
BRANCH  21  27
HETATM   27  O   UNK     0      48.995  54.474  58.959  0.00  0.00    -0.390 OA
HETATM   28  H   UNK     0      48.630  54.770  59.810  0.00  0.00     0.210 HD
ENDBRANCH  21  27
BRANCH  22  29
HETATM   29  O   UNK     0      50.624  56.516  57.741  0.00  0.00    -0.390 OA
HETATM   30  H   UNK     0      50.244  56.675  58.621  0.00  0.00     0.210 HD
ENDBRANCH  22  29
BRANCH  23  31
HETATM   31  O   UNK     0      50.261  56.547  54.826  0.00  0.00    -0.390 OA
HETATM   32  H   UNK     0      50.108  57.320  54.257  0.00  0.00     0.210 HD
ENDBRANCH  23  31
ENDBRANCH   2  18
TORSDOF 10
