MODEL 1
REMARK VINA RESULT:      -8.4      0.000      0.000
REMARK  10 active torsions:
REMARK  status: ('A' for Active; 'I' for Inactive)
REMARK    1  A    between atoms: O_3  and  C_8 
REMARK    2  A    between atoms: O_4  and  C_9 
REMARK    3  A    between atoms: O_5  and  C_10 
REMARK    4  A    between atoms: O_6  and  C_14 
REMARK    5  A    between atoms: O_7  and  C_26 
REMARK    6  A    between atoms: O_7  and  C_27 
REMARK    7  A    between atoms: C_11  and  C_13 
REMARK    8  A    between atoms: C_12  and  C_14 
REMARK    9  A    between atoms: C_17  and  C_19 
REMARK   10  A    between atoms: C_19  and  C_21 
ROOT
HETATM    1 Cl   UNK     0      48.034  54.061  56.973  0.00  0.00    -0.084 Cl
HETATM    2  C   UNK     0      47.204  54.011  61.409  0.00  0.00    -0.026 A 
HETATM    3  C   UNK     0      46.428  53.226  60.557  0.00  0.00     0.019 A 
HETATM    4  C   UNK     0      48.228  54.803  60.890  0.00  0.00     0.011 A 
HETATM    5  C   UNK     0      46.675  53.234  59.185  0.00  0.00    -0.032 A 
HETATM    6  C   UNK     0      48.475  54.811  59.518  0.00  0.00     0.025 A 
HETATM    7  C   UNK     0      47.699  54.026  58.665  0.00  0.00     0.040 A 
ENDROOT
BRANCH   5   8
HETATM    8  C   UNK     0      45.821  52.379  58.304  0.00  0.00     0.078 C 
BRANCH   8   9
HETATM    9  C   UNK     0      46.087  50.896  58.449  0.00  0.00    -0.054 A 
HETATM   10  C   UNK     0      47.370  50.464  58.733  0.00  0.00     0.010 A 
HETATM   11  C   UNK     0      47.614  49.097  58.864  0.00  0.00     0.037 A 
HETATM   12  C   UNK     0      46.571  48.184  58.710  0.00  0.00     0.068 A 
HETATM   13  C   UNK     0      45.284  48.638  58.423  0.00  0.00     0.037 A 
HETATM   14  C   UNK     0      45.039  50.005  58.291  0.00  0.00     0.010 A 
BRANCH  12  15
HETATM   15  O   UNK     0      46.810  46.850  58.840  0.00  0.00    -0.352 OA
BRANCH  15  16
HETATM   16  C   UNK     0      46.171  45.982  57.906  0.00  0.00     0.171 C 
HETATM   17  C   UNK     0      47.213  45.419  56.963  0.00  0.00     0.034 C 
ENDBRANCH  15  16
ENDBRANCH  12  15
ENDBRANCH   8   9
ENDBRANCH   5   8
BRANCH   2  18
HETATM   18  C   UNK     0      46.935  54.002  62.901  0.00  0.00     0.186 C 
HETATM   19  O   UNK     0      46.561  55.329  63.284  0.00  0.00    -0.368 OA
HETATM   20  C   UNK     0      46.192  55.424  64.660  0.00  0.00     0.177 C 
HETATM   21  C   UNK     0      47.385  55.067  65.548  0.00  0.00     0.180 C 
HETATM   22  C   UNK     0      47.919  53.676  65.206  0.00  0.00     0.181 C 
HETATM   23  C   UNK     0      48.158  53.526  63.702  0.00  0.00     0.182 C 
BRANCH  20  24
HETATM   24  C   UNK     0      45.710  56.850  64.907  0.00  0.00     0.198 C 
BRANCH  24  25
HETATM   25  O   UNK     0      44.885  57.242  63.824  0.00  0.00    -0.398 OA
HETATM   26  H   UNK     0      43.972  56.989  64.043  0.00  0.00     0.209 HD
ENDBRANCH  24  25
ENDBRANCH  20  24
BRANCH  21  27
HETATM   27  O   UNK     0      46.978  55.093  66.914  0.00  0.00    -0.390 OA
HETATM   28  H   UNK     0      46.492  54.271  67.098  0.00  0.00     0.210 HD
ENDBRANCH  21  27
BRANCH  22  29
HETATM   29  O   UNK     0      49.153  53.494  65.903  0.00  0.00    -0.390 OA
HETATM   30  H   UNK     0      49.350  52.543  65.900  0.00  0.00     0.210 HD
ENDBRANCH  22  29
BRANCH  23  31
HETATM   31  O   UNK     0      48.392  52.150  63.404  0.00  0.00    -0.390 OA
HETATM   32  H   UNK     0      49.342  52.036  63.231  0.00  0.00     0.210 HD
ENDBRANCH  23  31
ENDBRANCH   2  18
TORSDOF 10
ENDMDL
MODEL 2
REMARK VINA RESULT:      -7.6      3.642      5.747
REMARK  10 active torsions:
REMARK  status: ('A' for Active; 'I' for Inactive)
REMARK    1  A    between atoms: O_3  and  C_8 
REMARK    2  A    between atoms: O_4  and  C_9 
REMARK    3  A    between atoms: O_5  and  C_10 
REMARK    4  A    between atoms: O_6  and  C_14 
REMARK    5  A    between atoms: O_7  and  C_26 
REMARK    6  A    between atoms: O_7  and  C_27 
REMARK    7  A    between atoms: C_11  and  C_13 
REMARK    8  A    between atoms: C_12  and  C_14 
REMARK    9  A    between atoms: C_17  and  C_19 
REMARK   10  A    between atoms: C_19  and  C_21 
ROOT
HETATM    1 Cl   UNK     0      45.884  50.771  58.451  0.00  0.00    -0.084 Cl
HETATM    2  C   UNK     0      48.290  53.278  61.331  0.00  0.00    -0.026 A 
HETATM    3  C   UNK     0      47.515  53.906  60.356  0.00  0.00     0.019 A 
HETATM    4  C   UNK     0      48.317  51.887  61.412  0.00  0.00     0.011 A 
HETATM    5  C   UNK     0      46.768  53.142  59.461  0.00  0.00    -0.032 A 
HETATM    6  C   UNK     0      47.571  51.122  60.517  0.00  0.00     0.025 A 
HETATM    7  C   UNK     0      46.796  51.750  59.541  0.00  0.00     0.040 A 
ENDROOT
BRANCH   5   8
HETATM    8  C   UNK     0      45.951  53.852  58.430  0.00  0.00     0.078 C 
BRANCH   8   9
HETATM    9  C   UNK     0      46.775  54.548  57.369  0.00  0.00    -0.054 A 
HETATM   10  C   UNK     0      48.083  54.148  57.159  0.00  0.00     0.010 A 
HETATM   11  C   UNK     0      48.842  54.791  56.182  0.00  0.00     0.037 A 
HETATM   12  C   UNK     0      48.281  55.823  55.430  0.00  0.00     0.068 A 
HETATM   13  C   UNK     0      46.962  56.213  55.656  0.00  0.00     0.037 A 
HETATM   14  C   UNK     0      46.202  55.570  56.633  0.00  0.00     0.010 A 
BRANCH  12  15
HETATM   15  O   UNK     0      49.023  56.449  54.474  0.00  0.00    -0.352 OA
BRANCH  15  16
HETATM   16  C   UNK     0      48.766  57.835  54.258  0.00  0.00     0.171 C 
HETATM   17  C   UNK     0      49.749  58.652  55.070  0.00  0.00     0.034 C 
ENDBRANCH  15  16
ENDBRANCH  12  15
ENDBRANCH   8   9
ENDBRANCH   5   8
BRANCH   2  18
HETATM   18  C   UNK     0      49.102  54.110  62.305  0.00  0.00     0.186 C 
HETATM   19  O   UNK     0      48.369  55.310  62.568  0.00  0.00    -0.368 OA
HETATM   20  C   UNK     0      48.995  56.137  63.549  0.00  0.00     0.177 C 
HETATM   21  C   UNK     0      50.364  56.600  63.048  0.00  0.00     0.180 C 
HETATM   22  C   UNK     0      51.241  55.402  62.681  0.00  0.00     0.181 C 
HETATM   23  C   UNK     0      50.501  54.433  61.756  0.00  0.00     0.182 C 
BRANCH  20  24
HETATM   24  C   UNK     0      48.064  57.315  63.818  0.00  0.00     0.198 C 
BRANCH  24  25
HETATM   25  O   UNK     0      48.405  58.370  62.937  0.00  0.00    -0.398 OA
HETATM   26  H   UNK     0      47.995  58.179  62.076  0.00  0.00     0.209 HD
ENDBRANCH  24  25
ENDBRANCH  20  24
BRANCH  21  27
HETATM   27  O   UNK     0      51.006  57.359  64.069  0.00  0.00    -0.390 OA
HETATM   28  H   UNK     0      51.845  57.695  63.711  0.00  0.00     0.210 HD
ENDBRANCH  21  27
BRANCH  22  29
HETATM   29  O   UNK     0      52.406  55.896  62.018  0.00  0.00    -0.390 OA
HETATM   30  H   UNK     0      52.260  56.840  61.839  0.00  0.00     0.210 HD
ENDBRANCH  22  29
BRANCH  23  31
HETATM   31  O   UNK     0      51.246  53.219  61.664  0.00  0.00    -0.390 OA
HETATM   32  H   UNK     0      51.922  53.226  62.362  0.00  0.00     0.210 HD
ENDBRANCH  23  31
ENDBRANCH   2  18
TORSDOF 10
ENDMDL
MODEL 3
REMARK VINA RESULT:      -7.6      5.013      7.233
REMARK  10 active torsions:
REMARK  status: ('A' for Active; 'I' for Inactive)
REMARK    1  A    between atoms: O_3  and  C_8 
REMARK    2  A    between atoms: O_4  and  C_9 
REMARK    3  A    between atoms: O_5  and  C_10 
REMARK    4  A    between atoms: O_6  and  C_14 
REMARK    5  A    between atoms: O_7  and  C_26 
REMARK    6  A    between atoms: O_7  and  C_27 
REMARK    7  A    between atoms: C_11  and  C_13 
REMARK    8  A    between atoms: C_12  and  C_14 
REMARK    9  A    between atoms: C_17  and  C_19 
REMARK   10  A    between atoms: C_19  and  C_21 
ROOT
HETATM    1 Cl   UNK     0      50.398  55.752  54.885  0.00  0.00    -0.084 Cl
HETATM    2  C   UNK     0      48.109  55.248  58.742  0.00  0.00    -0.026 A 
HETATM    3  C   UNK     0      47.474  54.986  57.528  0.00  0.00     0.019 A 
HETATM    4  C   UNK     0      49.440  55.661  58.759  0.00  0.00     0.011 A 
HETATM    5  C   UNK     0      48.172  55.138  56.331  0.00  0.00    -0.032 A 
HETATM    6  C   UNK     0      50.138  55.814  57.562  0.00  0.00     0.025 A 
HETATM    7  C   UNK     0      49.504  55.552  56.347  0.00  0.00     0.040 A 
ENDROOT
BRANCH   5   8
HETATM    8  C   UNK     0      47.457  54.848  55.050  0.00  0.00     0.078 C 
BRANCH   8   9
HETATM    9  C   UNK     0      47.126  56.083  54.241  0.00  0.00    -0.054 A 
HETATM   10  C   UNK     0      46.594  57.189  54.881  0.00  0.00     0.010 A 
HETATM   11  C   UNK     0      46.288  58.325  54.134  0.00  0.00     0.037 A 
HETATM   12  C   UNK     0      46.520  58.340  52.758  0.00  0.00     0.068 A 
HETATM   13  C   UNK     0      47.057  57.216  52.130  0.00  0.00     0.037 A 
HETATM   14  C   UNK     0      47.362  56.079  52.877  0.00  0.00     0.010 A 
BRANCH  12  15
HETATM   15  O   UNK     0      46.223  59.451  52.030  0.00  0.00    -0.352 OA
BRANCH  15  16
HETATM   16  C   UNK     0      46.177  59.305  50.612  0.00  0.00     0.171 C 
HETATM   17  C   UNK     0      47.249  60.176  49.992  0.00  0.00     0.034 C 
ENDBRANCH  15  16
ENDBRANCH  12  15
ENDBRANCH   8   9
ENDBRANCH   5   8
BRANCH   2  18
HETATM   18  C   UNK     0      47.350  55.081  60.044  0.00  0.00     0.186 C 
HETATM   19  O   UNK     0      48.037  55.835  61.048  0.00  0.00    -0.368 OA
HETATM   20  C   UNK     0      47.361  55.829  62.305  0.00  0.00     0.177 C 
HETATM   21  C   UNK     0      47.283  54.402  62.851  0.00  0.00     0.180 C 
HETATM   22  C   UNK     0      46.606  53.471  61.845  0.00  0.00     0.181 C 
HETATM   23  C   UNK     0      47.232  53.605  60.455  0.00  0.00     0.182 C 
BRANCH  20  24
HETATM   24  C   UNK     0      48.129  56.753  63.244  0.00  0.00     0.198 C 
BRANCH  24  25
HETATM   25  O   UNK     0      48.094  58.066  62.713  0.00  0.00    -0.398 OA
HETATM   26  H   UNK     0      48.636  58.631  63.289  0.00  0.00     0.209 HD
ENDBRANCH  24  25
ENDBRANCH  20  24
BRANCH  21  27
HETATM   27  O   UNK     0      46.538  54.405  64.067  0.00  0.00    -0.390 OA
HETATM   28  H   UNK     0      46.076  53.552  64.137  0.00  0.00     0.210 HD
ENDBRANCH  21  27
BRANCH  22  29
HETATM   29  O   UNK     0      46.764  52.130  62.310  0.00  0.00    -0.390 OA
HETATM   30  H   UNK     0      46.029  51.946  62.920  0.00  0.00     0.210 HD
ENDBRANCH  22  29
BRANCH  23  31
HETATM   31  O   UNK     0      46.405  52.932  59.507  0.00  0.00    -0.390 OA
HETATM   32  H   UNK     0      45.981  52.181  59.956  0.00  0.00     0.210 HD
ENDBRANCH  23  31
ENDBRANCH   2  18
TORSDOF 10
ENDMDL
MODEL 4
REMARK VINA RESULT:      -7.6     14.601     17.533
REMARK  10 active torsions:
REMARK  status: ('A' for Active; 'I' for Inactive)
REMARK    1  A    between atoms: O_3  and  C_8 
REMARK    2  A    between atoms: O_4  and  C_9 
REMARK    3  A    between atoms: O_5  and  C_10 
REMARK    4  A    between atoms: O_6  and  C_14 
REMARK    5  A    between atoms: O_7  and  C_26 
REMARK    6  A    between atoms: O_7  and  C_27 
REMARK    7  A    between atoms: C_11  and  C_13 
REMARK    8  A    between atoms: C_12  and  C_14 
REMARK    9  A    between atoms: C_17  and  C_19 
REMARK   10  A    between atoms: C_19  and  C_21 
ROOT
HETATM    1 Cl   UNK     0      37.839  65.273  58.288  0.00  0.00    -0.084 Cl
HETATM    2  C   UNK     0      38.072  61.475  55.863  0.00  0.00    -0.026 A 
HETATM    3  C   UNK     0      37.112  62.435  55.543  0.00  0.00     0.019 A 
HETATM    4  C   UNK     0      38.950  61.691  56.923  0.00  0.00     0.011 A 
HETATM    5  C   UNK     0      37.031  63.612  56.286  0.00  0.00    -0.032 A 
HETATM    6  C   UNK     0      38.869  62.868  57.666  0.00  0.00     0.025 A 
HETATM    7  C   UNK     0      37.909  63.829  57.347  0.00  0.00     0.040 A 
ENDROOT
BRANCH   5   8
HETATM    8  C   UNK     0      35.989  64.617  55.912  0.00  0.00     0.078 C 
BRANCH   8   9
HETATM    9  C   UNK     0      36.392  65.517  54.764  0.00  0.00    -0.054 A 
HETATM   10  C   UNK     0      37.326  66.514  54.982  0.00  0.00     0.010 A 
HETATM   11  C   UNK     0      37.694  67.344  53.924  0.00  0.00     0.037 A 
HETATM   12  C   UNK     0      37.124  67.163  52.664  0.00  0.00     0.068 A 
HETATM   13  C   UNK     0      36.184  66.152  52.462  0.00  0.00     0.037 A 
HETATM   14  C   UNK     0      35.815  65.322  53.521  0.00  0.00     0.010 A 
BRANCH  12  15
HETATM   15  O   UNK     0      37.487  67.972  51.631  0.00  0.00    -0.352 OA
BRANCH  15  16
HETATM   16  C   UNK     0      37.669  69.356  51.924  0.00  0.00     0.171 C 
HETATM   17  C   UNK     0      37.189  70.177  50.746  0.00  0.00     0.034 C 
ENDBRANCH  15  16
ENDBRANCH  12  15
ENDBRANCH   8   9
ENDBRANCH   5   8
BRANCH   2  18
HETATM   18  C   UNK     0      38.160  60.195  55.054  0.00  0.00     0.186 C 
HETATM   19  O   UNK     0      38.456  60.554  53.701  0.00  0.00    -0.368 OA
HETATM   20  C   UNK     0      38.655  59.420  52.858  0.00  0.00     0.177 C 
HETATM   21  C   UNK     0      37.373  58.588  52.786  0.00  0.00     0.180 C 
HETATM   22  C   UNK     0      36.915  58.174  54.185  0.00  0.00     0.181 C 
HETATM   23  C   UNK     0      36.862  59.376  55.132  0.00  0.00     0.182 C 
BRANCH  20  24
HETATM   24  C   UNK     0      39.071  59.937  51.485  0.00  0.00     0.198 C 
BRANCH  24  25
HETATM   25  O   UNK     0      40.434  59.614  51.276  0.00  0.00    -0.398 OA
HETATM   26  H   UNK     0      40.634  59.773  50.337  0.00  0.00     0.209 HD
ENDBRANCH  24  25
ENDBRANCH  20  24
BRANCH  21  27
HETATM   27  O   UNK     0      37.613  57.421  52.004  0.00  0.00    -0.390 OA
HETATM   28  H   UNK     0      38.538  57.153  52.140  0.00  0.00     0.210 HD
ENDBRANCH  21  27
BRANCH  22  29
HETATM   29  O   UNK     0      35.612  57.602  54.071  0.00  0.00    -0.390 OA
HETATM   30  H   UNK     0      35.198  57.645  54.949  0.00  0.00     0.210 HD
ENDBRANCH  22  29
BRANCH  23  31
HETATM   31  O   UNK     0      36.697  58.906  56.469  0.00  0.00    -0.390 OA
HETATM   32  H   UNK     0      36.832  59.657  57.071  0.00  0.00     0.210 HD
ENDBRANCH  23  31
ENDBRANCH   2  18
TORSDOF 10
ENDMDL
MODEL 5
REMARK VINA RESULT:      -7.5     32.694     35.051
REMARK  10 active torsions:
REMARK  status: ('A' for Active; 'I' for Inactive)
REMARK    1  A    between atoms: O_3  and  C_8 
REMARK    2  A    between atoms: O_4  and  C_9 
REMARK    3  A    between atoms: O_5  and  C_10 
REMARK    4  A    between atoms: O_6  and  C_14 
REMARK    5  A    between atoms: O_7  and  C_26 
REMARK    6  A    between atoms: O_7  and  C_27 
REMARK    7  A    between atoms: C_11  and  C_13 
REMARK    8  A    between atoms: C_12  and  C_14 
REMARK    9  A    between atoms: C_17  and  C_19 
REMARK   10  A    between atoms: C_19  and  C_21 
ROOT
HETATM    1 Cl   UNK     0      36.856  56.490  32.527  0.00  0.00    -0.084 Cl
HETATM    2  C   UNK     0      34.351  59.769  30.700  0.00  0.00    -0.026 A 
HETATM    3  C   UNK     0      34.239  58.467  30.212  0.00  0.00     0.019 A 
HETATM    4  C   UNK     0      35.230  60.050  31.744  0.00  0.00     0.011 A 
HETATM    5  C   UNK     0      35.008  57.446  30.768  0.00  0.00    -0.032 A 
HETATM    6  C   UNK     0      36.000  59.030  32.300  0.00  0.00     0.025 A 
HETATM    7  C   UNK     0      35.889  57.728  31.813  0.00  0.00     0.040 A 
ENDROOT
BRANCH   5   8
HETATM    8  C   UNK     0      34.860  56.065  30.218  0.00  0.00     0.078 C 
BRANCH   8   9
HETATM    9  C   UNK     0      35.762  55.777  29.037  0.00  0.00    -0.054 A 
HETATM   10  C   UNK     0      35.420  56.269  27.790  0.00  0.00     0.010 A 
HETATM   11  C   UNK     0      36.251  56.002  26.702  0.00  0.00     0.037 A 
HETATM   12  C   UNK     0      37.411  55.247  26.879  0.00  0.00     0.068 A 
HETATM   13  C   UNK     0      37.739  54.759  28.144  0.00  0.00     0.037 A 
HETATM   14  C   UNK     0      36.908  55.026  29.232  0.00  0.00     0.010 A 
BRANCH  12  15
HETATM   15  O   UNK     0      38.222  54.988  25.817  0.00  0.00    -0.352 OA
BRANCH  15  16
HETATM   16  C   UNK     0      38.512  53.620  25.540  0.00  0.00     0.171 C 
HETATM   17  C   UNK     0      37.398  53.042  24.692  0.00  0.00     0.034 C 
ENDBRANCH  15  16
ENDBRANCH  12  15
ENDBRANCH   8   9
ENDBRANCH   5   8
BRANCH   2  18
HETATM   18  C   UNK     0      33.513  60.879  30.094  0.00  0.00     0.186 C 
HETATM   19  O   UNK     0      34.081  61.208  28.823  0.00  0.00    -0.368 OA
HETATM   20  C   UNK     0      33.319  62.184  28.113  0.00  0.00     0.177 C 
HETATM   21  C   UNK     0      33.289  63.498  28.896  0.00  0.00     0.180 C 
HETATM   22  C   UNK     0      32.742  63.276  30.306  0.00  0.00     0.181 C 
HETATM   23  C   UNK     0      33.455  62.116  31.004  0.00  0.00     0.182 C 
BRANCH  20  24
HETATM   24  C   UNK     0      33.962  62.359  26.741  0.00  0.00     0.198 C 
BRANCH  24  25
HETATM   25  O   UNK     0      32.935  62.526  25.779  0.00  0.00    -0.398 OA
HETATM   26  H   UNK     0      32.690  63.467  25.772  0.00  0.00     0.209 HD
ENDBRANCH  24  25
ENDBRANCH  20  24
BRANCH  21  27
HETATM   27  O   UNK     0      32.461  64.434  28.211  0.00  0.00    -0.390 OA
HETATM   28  H   UNK     0      32.665  65.321  28.553  0.00  0.00     0.210 HD
ENDBRANCH  21  27
BRANCH  22  29
HETATM   29  O   UNK     0      32.946  64.477  31.052  0.00  0.00    -0.390 OA
HETATM   30  H   UNK     0      33.330  65.133  30.447  0.00  0.00     0.210 HD
ENDBRANCH  22  29
BRANCH  23  31
HETATM   31  O   UNK     0      32.739  61.777  32.191  0.00  0.00    -0.390 OA
HETATM   32  H   UNK     0      33.383  61.494  32.862  0.00  0.00     0.210 HD
ENDBRANCH  23  31
ENDBRANCH   2  18
TORSDOF 10
ENDMDL
MODEL 6
REMARK VINA RESULT:      -7.1     44.267     46.967
REMARK  10 active torsions:
REMARK  status: ('A' for Active; 'I' for Inactive)
REMARK    1  A    between atoms: O_3  and  C_8 
REMARK    2  A    between atoms: O_4  and  C_9 
REMARK    3  A    between atoms: O_5  and  C_10 
REMARK    4  A    between atoms: O_6  and  C_14 
REMARK    5  A    between atoms: O_7  and  C_26 
REMARK    6  A    between atoms: O_7  and  C_27 
REMARK    7  A    between atoms: C_11  and  C_13 
REMARK    8  A    between atoms: C_12  and  C_14 
REMARK    9  A    between atoms: C_17  and  C_19 
REMARK   10  A    between atoms: C_19  and  C_21 
ROOT
HETATM    1 Cl   UNK     0      23.547  26.716  25.956  0.00  0.00    -0.084 Cl
HETATM    2  C   UNK     0      25.223  30.897  26.238  0.00  0.00    -0.026 A 
HETATM    3  C   UNK     0      25.585  30.084  25.165  0.00  0.00     0.019 A 
HETATM    4  C   UNK     0      24.349  30.419  27.212  0.00  0.00     0.011 A 
HETATM    5  C   UNK     0      25.074  28.790  25.067  0.00  0.00    -0.032 A 
HETATM    6  C   UNK     0      23.838  29.125  27.116  0.00  0.00     0.025 A 
HETATM    7  C   UNK     0      24.200  28.311  26.043  0.00  0.00     0.040 A 
ENDROOT
BRANCH   5   8
HETATM    8  C   UNK     0      25.486  27.949  23.903  0.00  0.00     0.078 C 
BRANCH   8   9
HETATM    9  C   UNK     0      26.938  27.522  23.940  0.00  0.00    -0.054 A 
HETATM   10  C   UNK     0      27.790  27.937  22.931  0.00  0.00     0.010 A 
HETATM   11  C   UNK     0      29.127  27.542  22.966  0.00  0.00     0.037 A 
HETATM   12  C   UNK     0      29.591  26.740  24.009  0.00  0.00     0.068 A 
HETATM   13  C   UNK     0      28.718  26.332  25.017  0.00  0.00     0.037 A 
HETATM   14  C   UNK     0      27.380  26.726  24.982  0.00  0.00     0.010 A 
BRANCH  12  15
HETATM   15  O   UNK     0      30.898  26.357  24.043  0.00  0.00    -0.352 OA
BRANCH  15  16
HETATM   16  C   UNK     0      31.642  26.482  22.832  0.00  0.00     0.171 C 
HETATM   17  C   UNK     0      32.726  25.425  22.809  0.00  0.00     0.034 C 
ENDBRANCH  15  16
ENDBRANCH  12  15
ENDBRANCH   8   9
ENDBRANCH   5   8
BRANCH   2  18
HETATM   18  C   UNK     0      25.778  32.304  26.342  0.00  0.00     0.186 C 
HETATM   19  O   UNK     0      24.723  33.156  26.799  0.00  0.00    -0.368 OA
HETATM   20  C   UNK     0      25.154  34.498  27.026  0.00  0.00     0.177 C 
HETATM   21  C   UNK     0      25.640  35.120  25.715  0.00  0.00     0.180 C 
HETATM   22  C   UNK     0      26.748  34.273  25.089  0.00  0.00     0.181 C 
HETATM   23  C   UNK     0      26.340  32.801  25.001  0.00  0.00     0.182 C 
BRANCH  20  24
HETATM   24  C   UNK     0      23.975  35.265  27.613  0.00  0.00     0.198 C 
BRANCH  24  25
HETATM   25  O   UNK     0      24.470  36.416  28.275  0.00  0.00    -0.398 OA
HETATM   26  H   UNK     0      23.738  37.052  28.345  0.00  0.00     0.209 HD
ENDBRANCH  24  25
ENDBRANCH  20  24
BRANCH  21  27
HETATM   27  O   UNK     0      26.137  36.431  25.974  0.00  0.00    -0.390 OA
HETATM   28  H   UNK     0      26.013  36.963  25.170  0.00  0.00     0.210 HD
ENDBRANCH  21  27
BRANCH  22  29
HETATM   29  O   UNK     0      26.999  34.776  23.776  0.00  0.00    -0.390 OA
HETATM   30  H   UNK     0      27.671  35.474  23.856  0.00  0.00     0.210 HD
ENDBRANCH  22  29
BRANCH  23  31
HETATM   31  O   UNK     0      27.488  32.020  24.669  0.00  0.00    -0.390 OA
HETATM   32  H   UNK     0      27.830  31.624  25.487  0.00  0.00     0.210 HD
ENDBRANCH  23  31
ENDBRANCH   2  18
TORSDOF 10
ENDMDL
MODEL 7
REMARK VINA RESULT:      -7.0     43.249     47.050
REMARK  10 active torsions:
REMARK  status: ('A' for Active; 'I' for Inactive)
REMARK    1  A    between atoms: O_3  and  C_8 
REMARK    2  A    between atoms: O_4  and  C_9 
REMARK    3  A    between atoms: O_5  and  C_10 
REMARK    4  A    between atoms: O_6  and  C_14 
REMARK    5  A    between atoms: O_7  and  C_26 
REMARK    6  A    between atoms: O_7  and  C_27 
REMARK    7  A    between atoms: C_11  and  C_13 
REMARK    8  A    between atoms: C_12  and  C_14 
REMARK    9  A    between atoms: C_17  and  C_19 
REMARK   10  A    between atoms: C_19  and  C_21 
ROOT
HETATM    1 Cl   UNK     0      28.022  29.205  23.525  0.00  0.00    -0.084 Cl
HETATM    2  C   UNK     0      24.002  29.465  25.560  0.00  0.00    -0.026 A 
HETATM    3  C   UNK     0      24.934  30.484  25.750  0.00  0.00     0.019 A 
HETATM    4  C   UNK     0      24.313  28.376  24.747  0.00  0.00     0.011 A 
HETATM    5  C   UNK     0      26.179  30.415  25.126  0.00  0.00    -0.032 A 
HETATM    6  C   UNK     0      25.559  28.306  24.124  0.00  0.00     0.025 A 
HETATM    7  C   UNK     0      26.491  29.326  24.313  0.00  0.00     0.040 A 
ENDROOT
BRANCH   5   8
HETATM    8  C   UNK     0      27.151  31.528  25.354  0.00  0.00     0.078 C 
BRANCH   8   9
HETATM    9  C   UNK     0      26.496  32.856  25.671  0.00  0.00    -0.054 A 
HETATM   10  C   UNK     0      26.591  33.890  24.756  0.00  0.00     0.010 A 
HETATM   11  C   UNK     0      25.989  35.113  25.050  0.00  0.00     0.037 A 
HETATM   12  C   UNK     0      25.302  35.282  26.252  0.00  0.00     0.068 A 
HETATM   13  C   UNK     0      25.218  34.228  27.162  0.00  0.00     0.037 A 
HETATM   14  C   UNK     0      25.820  33.005  26.868  0.00  0.00     0.010 A 
BRANCH  12  15
HETATM   15  O   UNK     0      24.713  36.477  26.537  0.00  0.00    -0.352 OA
BRANCH  15  16
HETATM   16  C   UNK     0      23.715  36.482  27.556  0.00  0.00     0.171 C 
HETATM   17  C   UNK     0      24.135  37.440  28.651  0.00  0.00     0.034 C 
ENDBRANCH  15  16
ENDBRANCH  12  15
ENDBRANCH   8   9
ENDBRANCH   5   8
BRANCH   2  18
HETATM   18  C   UNK     0      22.648  29.541  26.238  0.00  0.00     0.186 C 
HETATM   19  O   UNK     0      22.159  30.877  26.085  0.00  0.00    -0.368 OA
HETATM   20  C   UNK     0      20.842  31.048  26.607  0.00  0.00     0.177 C 
HETATM   21  C   UNK     0      20.836  30.784  28.114  0.00  0.00     0.180 C 
HETATM   22  C   UNK     0      21.386  29.392  28.423  0.00  0.00     0.181 C 
HETATM   23  C   UNK     0      22.727  29.154  27.723  0.00  0.00     0.182 C 
BRANCH  20  24
HETATM   24  C   UNK     0      20.400  32.471  26.280  0.00  0.00     0.198 C 
BRANCH  24  25
HETATM   25  O   UNK     0      18.985  32.505  26.237  0.00  0.00    -0.398 OA
HETATM   26  H   UNK     0      18.725  33.296  25.735  0.00  0.00     0.209 HD
ENDBRANCH  24  25
ENDBRANCH  20  24
BRANCH  21  27
HETATM   27  O   UNK     0      19.501  30.883  28.603  0.00  0.00    -0.390 OA
HETATM   28  H   UNK     0      19.009  30.104  28.293  0.00  0.00     0.210 HD
ENDBRANCH  21  27
BRANCH  22  29
HETATM   29  O   UNK     0      21.564  29.292  29.837  0.00  0.00    -0.390 OA
HETATM   30  H   UNK     0      20.772  29.668  30.256  0.00  0.00     0.210 HD
ENDBRANCH  22  29
BRANCH  23  31
HETATM   31  O   UNK     0      23.061  27.770  27.818  0.00  0.00    -0.390 OA
HETATM   32  H   UNK     0      22.751  27.329  27.010  0.00  0.00     0.210 HD
ENDBRANCH  23  31
ENDBRANCH   2  18
TORSDOF 10
ENDMDL
MODEL 8
REMARK VINA RESULT:      -6.9     33.220     35.568
REMARK  10 active torsions:
REMARK  status: ('A' for Active; 'I' for Inactive)
REMARK    1  A    between atoms: O_3  and  C_8 
REMARK    2  A    between atoms: O_4  and  C_9 
REMARK    3  A    between atoms: O_5  and  C_10 
REMARK    4  A    between atoms: O_6  and  C_14 
REMARK    5  A    between atoms: O_7  and  C_26 
REMARK    6  A    between atoms: O_7  and  C_27 
REMARK    7  A    between atoms: C_11  and  C_13 
REMARK    8  A    between atoms: C_12  and  C_14 
REMARK    9  A    between atoms: C_17  and  C_19 
REMARK   10  A    between atoms: C_19  and  C_21 
ROOT
HETATM    1 Cl   UNK     0      36.265  57.266  32.333  0.00  0.00    -0.084 Cl
HETATM    2  C   UNK     0      34.674  60.864  30.122  0.00  0.00    -0.026 A 
HETATM    3  C   UNK     0      34.261  59.588  29.742  0.00  0.00     0.019 A 
HETATM    4  C   UNK     0      35.570  61.023  31.177  0.00  0.00     0.011 A 
HETATM    5  C   UNK     0      34.746  58.469  30.417  0.00  0.00    -0.032 A 
HETATM    6  C   UNK     0      36.056  59.905  31.853  0.00  0.00     0.025 A 
HETATM    7  C   UNK     0      35.644  58.627  31.473  0.00  0.00     0.040 A 
ENDROOT
BRANCH   5   8
HETATM    8  C   UNK     0      34.280  57.117  29.980  0.00  0.00     0.078 C 
BRANCH   8   9
HETATM    9  C   UNK     0      35.107  56.517  28.864  0.00  0.00    -0.054 A 
HETATM   10  C   UNK     0      34.995  57.036  27.586  0.00  0.00     0.010 A 
HETATM   11  C   UNK     0      35.756  56.481  26.558  0.00  0.00     0.037 A 
HETATM   12  C   UNK     0      36.618  55.416  26.824  0.00  0.00     0.068 A 
HETATM   13  C   UNK     0      36.717  54.906  28.118  0.00  0.00     0.037 A 
HETATM   14  C   UNK     0      35.955  55.461  29.147  0.00  0.00     0.010 A 
BRANCH  12  15
HETATM   15  O   UNK     0      37.362  54.876  25.819  0.00  0.00    -0.352 OA
BRANCH  15  16
HETATM   16  C   UNK     0      38.455  54.041  26.198  0.00  0.00     0.171 C 
HETATM   17  C   UNK     0      39.687  54.462  25.425  0.00  0.00     0.034 C 
ENDBRANCH  15  16
ENDBRANCH  12  15
ENDBRANCH   8   9
ENDBRANCH   5   8
BRANCH   2  18
HETATM   18  C   UNK     0      34.145  62.081  29.387  0.00  0.00     0.186 C 
HETATM   19  O   UNK     0      32.894  62.439  29.982  0.00  0.00    -0.368 OA
HETATM   20  C   UNK     0      32.340  63.633  29.430  0.00  0.00     0.177 C 
HETATM   21  C   UNK     0      32.040  63.434  27.943  0.00  0.00     0.180 C 
HETATM   22  C   UNK     0      33.297  62.998  27.190  0.00  0.00     0.181 C 
HETATM   23  C   UNK     0      33.979  61.815  27.882  0.00  0.00     0.182 C 
BRANCH  20  24
HETATM   24  C   UNK     0      31.079  63.963  30.222  0.00  0.00     0.198 C 
BRANCH  24  25
HETATM   25  O   UNK     0      31.399  63.957  31.602  0.00  0.00    -0.398 OA
HETATM   26  H   UNK     0      30.942  64.710  32.013  0.00  0.00     0.209 HD
ENDBRANCH  24  25
ENDBRANCH  20  24
BRANCH  21  27
HETATM   27  O   UNK     0      31.562  64.658  27.392  0.00  0.00    -0.390 OA
HETATM   28  H   UNK     0      30.783  64.934  27.905  0.00  0.00     0.210 HD
ENDBRANCH  21  27
BRANCH  22  29
HETATM   29  O   UNK     0      32.909  62.615  25.869  0.00  0.00    -0.390 OA
HETATM   30  H   UNK     0      32.061  63.050  25.679  0.00  0.00     0.210 HD
ENDBRANCH  22  29
BRANCH  23  31
HETATM   31  O   UNK     0      35.271  61.623  27.307  0.00  0.00    -0.390 OA
HETATM   32  H   UNK     0      35.167  61.082  26.506  0.00  0.00     0.210 HD
ENDBRANCH  23  31
ENDBRANCH   2  18
TORSDOF 10
ENDMDL
MODEL 9
REMARK VINA RESULT:      -6.8     27.553     30.629
REMARK  10 active torsions:
REMARK  status: ('A' for Active; 'I' for Inactive)
REMARK    1  A    between atoms: O_3  and  C_8 
REMARK    2  A    between atoms: O_4  and  C_9 
REMARK    3  A    between atoms: O_5  and  C_10 
REMARK    4  A    between atoms: O_6  and  C_14 
REMARK    5  A    between atoms: O_7  and  C_26 
REMARK    6  A    between atoms: O_7  and  C_27 
REMARK    7  A    between atoms: C_11  and  C_13 
REMARK    8  A    between atoms: C_12  and  C_14 
REMARK    9  A    between atoms: C_17  and  C_19 
REMARK   10  A    between atoms: C_19  and  C_21 
ROOT
HETATM    1 Cl   UNK     0      51.369  26.089  55.353  0.00  0.00    -0.084 Cl
HETATM    2  C   UNK     0      48.769  24.260  58.557  0.00  0.00    -0.026 A 
HETATM    3  C   UNK     0      48.580  23.889  57.226  0.00  0.00     0.019 A 
HETATM    4  C   UNK     0      49.754  25.187  58.891  0.00  0.00     0.011 A 
HETATM    5  C   UNK     0      49.377  24.448  56.228  0.00  0.00    -0.032 A 
HETATM    6  C   UNK     0      50.551  25.746  57.893  0.00  0.00     0.025 A 
HETATM    7  C   UNK     0      50.363  25.376  56.561  0.00  0.00     0.040 A 
ENDROOT
BRANCH   5   8
HETATM    8  C   UNK     0      49.144  24.025  54.813  0.00  0.00     0.078 C 
BRANCH   8   9
HETATM    9  C   UNK     0      49.653  22.635  54.498  0.00  0.00    -0.054 A 
HETATM   10  C   UNK     0      48.784  21.561  54.585  0.00  0.00     0.010 A 
HETATM   11  C   UNK     0      49.255  20.281  54.297  0.00  0.00     0.037 A 
HETATM   12  C   UNK     0      50.586  20.094  53.925  0.00  0.00     0.068 A 
HETATM   13  C   UNK     0      51.448  21.188  53.843  0.00  0.00     0.037 A 
HETATM   14  C   UNK     0      50.977  22.469  54.132  0.00  0.00     0.010 A 
BRANCH  12  15
HETATM   15  O   UNK     0      51.044  18.843  53.642  0.00  0.00    -0.352 OA
BRANCH  15  16
HETATM   16  C   UNK     0      51.937  18.250  54.583  0.00  0.00     0.171 C 
HETATM   17  C   UNK     0      51.165  17.271  55.444  0.00  0.00     0.034 C 
ENDBRANCH  15  16
ENDBRANCH  12  15
ENDBRANCH   8   9
ENDBRANCH   5   8
BRANCH   2  18
HETATM   18  C   UNK     0      47.902  23.651  59.642  0.00  0.00     0.186 C 
HETATM   19  O   UNK     0      48.387  22.329  59.895  0.00  0.00    -0.368 OA
HETATM   20  C   UNK     0      47.702  21.685  60.970  0.00  0.00     0.177 C 
HETATM   21  C   UNK     0      46.222  21.516  60.623  0.00  0.00     0.180 C 
HETATM   22  C   UNK     0      45.587  22.863  60.280  0.00  0.00     0.181 C 
HETATM   23  C   UNK     0      46.418  23.623  59.243  0.00  0.00     0.182 C 
BRANCH  20  24
HETATM   24  C   UNK     0      48.384  20.342  61.209  0.00  0.00     0.198 C 
BRANCH  24  25
HETATM   25  O   UNK     0      47.683  19.345  60.488  0.00  0.00    -0.398 OA
HETATM   26  H   UNK     0      48.029  18.481  60.769  0.00  0.00     0.209 HD
ENDBRANCH  24  25
ENDBRANCH  20  24
BRANCH  21  27
HETATM   27  O   UNK     0      45.541  20.943  61.736  0.00  0.00    -0.390 OA
HETATM   28  H   UNK     0      44.846  20.355  61.393  0.00  0.00     0.210 HD
ENDBRANCH  21  27
BRANCH  22  29
HETATM   29  O   UNK     0      44.283  22.615  59.753  0.00  0.00    -0.390 OA
HETATM   30  H   UNK     0      43.876  21.921  60.300  0.00  0.00     0.210 HD
ENDBRANCH  22  29
BRANCH  23  31
HETATM   31  O   UNK     0      45.942  24.966  59.160  0.00  0.00    -0.390 OA
HETATM   32  H   UNK     0      45.904  25.215  58.222  0.00  0.00     0.210 HD
ENDBRANCH  23  31
ENDBRANCH   2  18
TORSDOF 10
ENDMDL
