REMARK VINA RESULT:      -7.0     43.249     47.050
REMARK  10 active torsions:
REMARK  status: ('A' for Active; 'I' for Inactive)
REMARK    1  A    between atoms: O_3  and  C_8 
REMARK    2  A    between atoms: O_4  and  C_9 
REMARK    3  A    between atoms: O_5  and  C_10 
REMARK    4  A    between atoms: O_6  and  C_14 
REMARK    5  A    between atoms: O_7  and  C_26 
REMARK    6  A    between atoms: O_7  and  C_27 
REMARK    7  A    between atoms: C_11  and  C_13 
REMARK    8  A    between atoms: C_12  and  C_14 
REMARK    9  A    between atoms: C_17  and  C_19 
REMARK   10  A    between atoms: C_19  and  C_21 
ROOT
HETATM    1 Cl   UNK     0      28.022  29.205  23.525  0.00  0.00    -0.084 Cl
HETATM    2  C   UNK     0      24.002  29.465  25.560  0.00  0.00    -0.026 A 
HETATM    3  C   UNK     0      24.934  30.484  25.750  0.00  0.00     0.019 A 
HETATM    4  C   UNK     0      24.313  28.376  24.747  0.00  0.00     0.011 A 
HETATM    5  C   UNK     0      26.179  30.415  25.126  0.00  0.00    -0.032 A 
HETATM    6  C   UNK     0      25.559  28.306  24.124  0.00  0.00     0.025 A 
HETATM    7  C   UNK     0      26.491  29.326  24.313  0.00  0.00     0.040 A 
ENDROOT
BRANCH   5   8
HETATM    8  C   UNK     0      27.151  31.528  25.354  0.00  0.00     0.078 C 
BRANCH   8   9
HETATM    9  C   UNK     0      26.496  32.856  25.671  0.00  0.00    -0.054 A 
HETATM   10  C   UNK     0      26.591  33.890  24.756  0.00  0.00     0.010 A 
HETATM   11  C   UNK     0      25.989  35.113  25.050  0.00  0.00     0.037 A 
HETATM   12  C   UNK     0      25.302  35.282  26.252  0.00  0.00     0.068 A 
HETATM   13  C   UNK     0      25.218  34.228  27.162  0.00  0.00     0.037 A 
HETATM   14  C   UNK     0      25.820  33.005  26.868  0.00  0.00     0.010 A 
BRANCH  12  15
HETATM   15  O   UNK     0      24.713  36.477  26.537  0.00  0.00    -0.352 OA
BRANCH  15  16
HETATM   16  C   UNK     0      23.715  36.482  27.556  0.00  0.00     0.171 C 
HETATM   17  C   UNK     0      24.135  37.440  28.651  0.00  0.00     0.034 C 
ENDBRANCH  15  16
ENDBRANCH  12  15
ENDBRANCH   8   9
ENDBRANCH   5   8
BRANCH   2  18
HETATM   18  C   UNK     0      22.648  29.541  26.238  0.00  0.00     0.186 C 
HETATM   19  O   UNK     0      22.159  30.877  26.085  0.00  0.00    -0.368 OA
HETATM   20  C   UNK     0      20.842  31.048  26.607  0.00  0.00     0.177 C 
HETATM   21  C   UNK     0      20.836  30.784  28.114  0.00  0.00     0.180 C 
HETATM   22  C   UNK     0      21.386  29.392  28.423  0.00  0.00     0.181 C 
HETATM   23  C   UNK     0      22.727  29.154  27.723  0.00  0.00     0.182 C 
BRANCH  20  24
HETATM   24  C   UNK     0      20.400  32.471  26.280  0.00  0.00     0.198 C 
BRANCH  24  25
HETATM   25  O   UNK     0      18.985  32.505  26.237  0.00  0.00    -0.398 OA
HETATM   26  H   UNK     0      18.725  33.296  25.735  0.00  0.00     0.209 HD
ENDBRANCH  24  25
ENDBRANCH  20  24
BRANCH  21  27
HETATM   27  O   UNK     0      19.501  30.883  28.603  0.00  0.00    -0.390 OA
HETATM   28  H   UNK     0      19.009  30.104  28.293  0.00  0.00     0.210 HD
ENDBRANCH  21  27
BRANCH  22  29
HETATM   29  O   UNK     0      21.564  29.292  29.837  0.00  0.00    -0.390 OA
HETATM   30  H   UNK     0      20.772  29.668  30.256  0.00  0.00     0.210 HD
ENDBRANCH  22  29
BRANCH  23  31
HETATM   31  O   UNK     0      23.061  27.770  27.818  0.00  0.00    -0.390 OA
HETATM   32  H   UNK     0      22.751  27.329  27.010  0.00  0.00     0.210 HD
ENDBRANCH  23  31
ENDBRANCH   2  18
TORSDOF 10
