REMARK VINA RESULT:      -8.4      0.000      0.000
REMARK  10 active torsions:
REMARK  status: ('A' for Active; 'I' for Inactive)
REMARK    1  A    between atoms: O_3  and  C_8 
REMARK    2  A    between atoms: O_4  and  C_9 
REMARK    3  A    between atoms: O_5  and  C_10 
REMARK    4  A    between atoms: O_6  and  C_14 
REMARK    5  A    between atoms: O_7  and  C_26 
REMARK    6  A    between atoms: O_7  and  C_27 
REMARK    7  A    between atoms: C_11  and  C_13 
REMARK    8  A    between atoms: C_12  and  C_14 
REMARK    9  A    between atoms: C_17  and  C_19 
REMARK   10  A    between atoms: C_19  and  C_21 
ROOT
HETATM    1 Cl   UNK     0      48.034  54.061  56.973  0.00  0.00    -0.084 Cl
HETATM    2  C   UNK     0      47.204  54.011  61.409  0.00  0.00    -0.026 A 
HETATM    3  C   UNK     0      46.428  53.226  60.557  0.00  0.00     0.019 A 
HETATM    4  C   UNK     0      48.228  54.803  60.890  0.00  0.00     0.011 A 
HETATM    5  C   UNK     0      46.675  53.234  59.185  0.00  0.00    -0.032 A 
HETATM    6  C   UNK     0      48.475  54.811  59.518  0.00  0.00     0.025 A 
HETATM    7  C   UNK     0      47.699  54.026  58.665  0.00  0.00     0.040 A 
ENDROOT
BRANCH   5   8
HETATM    8  C   UNK     0      45.821  52.379  58.304  0.00  0.00     0.078 C 
BRANCH   8   9
HETATM    9  C   UNK     0      46.087  50.896  58.449  0.00  0.00    -0.054 A 
HETATM   10  C   UNK     0      47.370  50.464  58.733  0.00  0.00     0.010 A 
HETATM   11  C   UNK     0      47.614  49.097  58.864  0.00  0.00     0.037 A 
HETATM   12  C   UNK     0      46.571  48.184  58.710  0.00  0.00     0.068 A 
HETATM   13  C   UNK     0      45.284  48.638  58.423  0.00  0.00     0.037 A 
HETATM   14  C   UNK     0      45.039  50.005  58.291  0.00  0.00     0.010 A 
BRANCH  12  15
HETATM   15  O   UNK     0      46.810  46.850  58.840  0.00  0.00    -0.352 OA
BRANCH  15  16
HETATM   16  C   UNK     0      46.171  45.982  57.906  0.00  0.00     0.171 C 
HETATM   17  C   UNK     0      47.213  45.419  56.963  0.00  0.00     0.034 C 
ENDBRANCH  15  16
ENDBRANCH  12  15
ENDBRANCH   8   9
ENDBRANCH   5   8
BRANCH   2  18
HETATM   18  C   UNK     0      46.935  54.002  62.901  0.00  0.00     0.186 C 
HETATM   19  O   UNK     0      46.561  55.329  63.284  0.00  0.00    -0.368 OA
HETATM   20  C   UNK     0      46.192  55.424  64.660  0.00  0.00     0.177 C 
HETATM   21  C   UNK     0      47.385  55.067  65.548  0.00  0.00     0.180 C 
HETATM   22  C   UNK     0      47.919  53.676  65.206  0.00  0.00     0.181 C 
HETATM   23  C   UNK     0      48.158  53.526  63.702  0.00  0.00     0.182 C 
BRANCH  20  24
HETATM   24  C   UNK     0      45.710  56.850  64.907  0.00  0.00     0.198 C 
BRANCH  24  25
HETATM   25  O   UNK     0      44.885  57.242  63.824  0.00  0.00    -0.398 OA
HETATM   26  H   UNK     0      43.972  56.989  64.043  0.00  0.00     0.209 HD
ENDBRANCH  24  25
ENDBRANCH  20  24
BRANCH  21  27
HETATM   27  O   UNK     0      46.978  55.093  66.914  0.00  0.00    -0.390 OA
HETATM   28  H   UNK     0      46.492  54.271  67.098  0.00  0.00     0.210 HD
ENDBRANCH  21  27
BRANCH  22  29
HETATM   29  O   UNK     0      49.153  53.494  65.903  0.00  0.00    -0.390 OA
HETATM   30  H   UNK     0      49.350  52.543  65.900  0.00  0.00     0.210 HD
ENDBRANCH  22  29
BRANCH  23  31
HETATM   31  O   UNK     0      48.392  52.150  63.404  0.00  0.00    -0.390 OA
HETATM   32  H   UNK     0      49.342  52.036  63.231  0.00  0.00     0.210 HD
ENDBRANCH  23  31
ENDBRANCH   2  18
TORSDOF 10
