REMARK VINA RESULT:      -7.7     28.471     31.683
REMARK  10 active torsions:
REMARK  status: ('A' for Active; 'I' for Inactive)
REMARK    1  A    between atoms: O_3  and  C_8 
REMARK    2  A    between atoms: O_4  and  C_9 
REMARK    3  A    between atoms: O_5  and  C_10 
REMARK    4  A    between atoms: O_6  and  C_14 
REMARK    5  A    between atoms: O_7  and  C_26 
REMARK    6  A    between atoms: O_7  and  C_27 
REMARK    7  A    between atoms: C_11  and  C_13 
REMARK    8  A    between atoms: C_12  and  C_14 
REMARK    9  A    between atoms: C_17  and  C_19 
REMARK   10  A    between atoms: C_19  and  C_21 
ROOT
HETATM    1 Cl   UNK     0      36.913  56.408  32.524  0.00  0.00    -0.084 Cl
HETATM    2  C   UNK     0      34.422  59.733  30.761  0.00  0.00    -0.026 A 
HETATM    3  C   UNK     0      34.299  58.440  30.252  0.00  0.00     0.019 A 
HETATM    4  C   UNK     0      35.307  59.991  31.806  0.00  0.00     0.011 A 
HETATM    5  C   UNK     0      35.064  57.405  30.789  0.00  0.00    -0.032 A 
HETATM    6  C   UNK     0      36.072  58.957  32.342  0.00  0.00     0.025 A 
HETATM    7  C   UNK     0      35.951  57.664  31.835  0.00  0.00     0.040 A 
ENDROOT
BRANCH   5   8
HETATM    8  C   UNK     0      34.905  56.033  30.217  0.00  0.00     0.078 C 
BRANCH   8   9
HETATM    9  C   UNK     0      35.820  55.749  29.045  0.00  0.00    -0.054 A 
HETATM   10  C   UNK     0      35.466  56.201  27.786  0.00  0.00     0.010 A 
HETATM   11  C   UNK     0      36.309  55.937  26.708  0.00  0.00     0.037 A 
HETATM   12  C   UNK     0      37.493  55.227  26.905  0.00  0.00     0.068 A 
HETATM   13  C   UNK     0      37.834  54.779  28.181  0.00  0.00     0.037 A 
HETATM   14  C   UNK     0      36.990  55.043  29.261  0.00  0.00     0.010 A 
BRANCH  12  15
HETATM   15  O   UNK     0      38.317  54.971  25.851  0.00  0.00    -0.352 OA
BRANCH  15  16
HETATM   16  C   UNK     0      38.668  53.609  25.617  0.00  0.00     0.171 C 
HETATM   17  C   UNK     0      37.649  52.991  24.682  0.00  0.00     0.034 C 
ENDBRANCH  15  16
ENDBRANCH  12  15
ENDBRANCH   8   9
ENDBRANCH   5   8
BRANCH   2  18
HETATM   18  C   UNK     0      33.589  60.857  30.177  0.00  0.00     0.186 C 
HETATM   19  O   UNK     0      34.134  61.182  28.894  0.00  0.00    -0.368 OA
HETATM   20  C   UNK     0      33.371  62.172  28.204  0.00  0.00     0.177 C 
HETATM   21  C   UNK     0      33.380  63.483  28.991  0.00  0.00     0.180 C 
HETATM   22  C   UNK     0      32.860  63.266  30.412  0.00  0.00     0.181 C 
HETATM   23  C   UNK     0      33.571  62.092  31.092  0.00  0.00     0.182 C 
BRANCH  20  24
HETATM   24  C   UNK     0      33.987  62.340  26.818  0.00  0.00     0.198 C 
BRANCH  24  25
HETATM   25  O   UNK     0      32.943  62.552  25.884  0.00  0.00    -0.398 OA
HETATM   26  H   UNK     0      33.069  63.436  25.499  0.00  0.00     0.209 HD
ENDBRANCH  24  25
ENDBRANCH  20  24
BRANCH  21  27
HETATM   27  O   UNK     0      32.552  64.435  28.327  0.00  0.00    -0.390 OA
HETATM   28  H   UNK     0      31.625  64.180  28.473  0.00  0.00     0.210 HD
ENDBRANCH  21  27
BRANCH  22  29
HETATM   29  O   UNK     0      33.100  64.461  31.157  0.00  0.00    -0.390 OA
HETATM   30  H   UNK     0      32.637  64.372  32.006  0.00  0.00     0.210 HD
ENDBRANCH  22  29
BRANCH  23  31
HETATM   31  O   UNK     0      32.875  61.761  32.293  0.00  0.00    -0.390 OA
HETATM   32  H   UNK     0      32.960  60.804  32.437  0.00  0.00     0.210 HD
ENDBRANCH  23  31
ENDBRANCH   2  18
TORSDOF 10
