REMARK VINA RESULT:      -7.4      3.435      5.720
REMARK  10 active torsions:
REMARK  status: ('A' for Active; 'I' for Inactive)
REMARK    1  A    between atoms: O_3  and  C_8 
REMARK    2  A    between atoms: O_4  and  C_9 
REMARK    3  A    between atoms: O_5  and  C_10 
REMARK    4  A    between atoms: O_6  and  C_14 
REMARK    5  A    between atoms: O_7  and  C_26 
REMARK    6  A    between atoms: O_7  and  C_27 
REMARK    7  A    between atoms: C_11  and  C_13 
REMARK    8  A    between atoms: C_12  and  C_14 
REMARK    9  A    between atoms: C_17  and  C_19 
REMARK   10  A    between atoms: C_19  and  C_21 
ROOT
HETATM    1 Cl   UNK     0      46.041  59.133  50.586  0.00  0.00    -0.084 Cl
HETATM    2  C   UNK     0      47.638  56.682  54.023  0.00  0.00    -0.026 A 
HETATM    3  C   UNK     0      47.393  58.042  54.206  0.00  0.00     0.019 A 
HETATM    4  C   UNK     0      47.389  56.087  52.787  0.00  0.00     0.011 A 
HETATM    5  C   UNK     0      46.900  58.809  53.151  0.00  0.00    -0.032 A 
HETATM    6  C   UNK     0      46.897  56.854  51.731  0.00  0.00     0.025 A 
HETATM    7  C   UNK     0      46.652  58.215  51.914  0.00  0.00     0.040 A 
ENDROOT
BRANCH   5   8
HETATM    8  C   UNK     0      46.651  60.264  53.387  0.00  0.00     0.078 C 
BRANCH   8   9
HETATM    9  C   UNK     0      45.227  60.583  53.790  0.00  0.00    -0.054 A 
HETATM   10  C   UNK     0      44.341  61.046  52.833  0.00  0.00     0.010 A 
HETATM   11  C   UNK     0      43.030  61.341  53.207  0.00  0.00     0.037 A 
HETATM   12  C   UNK     0      42.626  61.167  54.531  0.00  0.00     0.068 A 
HETATM   13  C   UNK     0      43.533  60.700  55.481  0.00  0.00     0.037 A 
HETATM   14  C   UNK     0      44.844  60.405  55.108  0.00  0.00     0.010 A 
BRANCH  12  15
HETATM   15  O   UNK     0      41.345  61.453  54.893  0.00  0.00    -0.352 OA
BRANCH  15  16
HETATM   16  C   UNK     0      40.654  60.472  55.665  0.00  0.00     0.171 C 
HETATM   17  C   UNK     0      39.563  59.857  54.815  0.00  0.00     0.034 C 
ENDBRANCH  15  16
ENDBRANCH  12  15
ENDBRANCH   8   9
ENDBRANCH   5   8
BRANCH   2  18
HETATM   18  C   UNK     0      48.173  55.848  55.171  0.00  0.00     0.186 C 
HETATM   19  O   UNK     0      47.100  55.637  56.093  0.00  0.00    -0.368 OA
HETATM   20  C   UNK     0      47.462  54.782  57.177  0.00  0.00     0.177 C 
HETATM   21  C   UNK     0      48.583  55.422  57.998  0.00  0.00     0.180 C 
HETATM   22  C   UNK     0      49.787  55.746  57.113  0.00  0.00     0.181 C 
HETATM   23  C   UNK     0      49.366  56.525  55.864  0.00  0.00     0.182 C 
BRANCH  20  24
HETATM   24  C   UNK     0      46.209  54.549  58.016  0.00  0.00     0.198 C 
BRANCH  24  25
HETATM   25  O   UNK     0      46.376  55.196  59.265  0.00  0.00    -0.398 OA
HETATM   26  H   UNK     0      45.592  54.999  59.805  0.00  0.00     0.209 HD
ENDBRANCH  24  25
ENDBRANCH  20  24
BRANCH  21  27
HETATM   27  O   UNK     0      48.984  54.522  59.028  0.00  0.00    -0.390 OA
HETATM   28  H   UNK     0      49.709  53.975  58.683  0.00  0.00     0.210 HD
ENDBRANCH  21  27
BRANCH  22  29
HETATM   29  O   UNK     0      50.698  56.535  57.880  0.00  0.00    -0.390 OA
HETATM   30  H   UNK     0      50.283  56.701  58.743  0.00  0.00     0.210 HD
ENDBRANCH  22  29
BRANCH  23  31
HETATM   31  O   UNK     0      50.462  56.565  54.952  0.00  0.00    -0.390 OA
HETATM   32  H   UNK     0      51.285  56.500  55.465  0.00  0.00     0.210 HD
ENDBRANCH  23  31
ENDBRANCH   2  18
TORSDOF 10
