MODEL 1
REMARK VINA RESULT:      -7.4      0.000      0.000
REMARK  10 active torsions:
REMARK  status: ('A' for Active; 'I' for Inactive)
REMARK    1  A    between atoms: O_3  and  C_8 
REMARK    2  A    between atoms: O_4  and  C_9 
REMARK    3  A    between atoms: O_5  and  C_10 
REMARK    4  A    between atoms: O_6  and  C_14 
REMARK    5  A    between atoms: O_7  and  C_26 
REMARK    6  A    between atoms: O_7  and  C_27 
REMARK    7  A    between atoms: C_11  and  C_13 
REMARK    8  A    between atoms: C_12  and  C_14 
REMARK    9  A    between atoms: C_17  and  C_19 
REMARK   10  A    between atoms: C_19  and  C_21 
ROOT
HETATM    1 Cl   UNK     0      45.730  58.991  50.715  0.00  0.00    -0.084 Cl
HETATM    2  C   UNK     0      47.490  56.576  54.097  0.00  0.00    -0.026 A 
HETATM    3  C   UNK     0      46.801  57.754  54.382  0.00  0.00     0.019 A 
HETATM    4  C   UNK     0      47.631  56.151  52.777  0.00  0.00     0.011 A 
HETATM    5  C   UNK     0      46.253  58.509  53.345  0.00  0.00    -0.032 A 
HETATM    6  C   UNK     0      47.084  56.905  51.740  0.00  0.00     0.025 A 
HETATM    7  C   UNK     0      46.395  58.084  52.024  0.00  0.00     0.040 A 
ENDROOT
BRANCH   5   8
HETATM    8  C   UNK     0      45.522  59.766  53.690  0.00  0.00     0.078 C 
BRANCH   8   9
HETATM    9  C   UNK     0      46.428  60.906  54.104  0.00  0.00    -0.054 A 
HETATM   10  C   UNK     0      47.293  61.453  53.174  0.00  0.00     0.010 A 
HETATM   11  C   UNK     0      48.128  62.502  53.557  0.00  0.00     0.037 A 
HETATM   12  C   UNK     0      48.083  62.988  54.864  0.00  0.00     0.068 A 
HETATM   13  C   UNK     0      47.204  62.424  55.788  0.00  0.00     0.037 A 
HETATM   14  C   UNK     0      46.369  61.374  55.405  0.00  0.00     0.010 A 
BRANCH  12  15
HETATM   15  O   UNK     0      48.898  64.014  55.237  0.00  0.00    -0.352 OA
BRANCH  15  16
HETATM   16  C   UNK     0      48.858  65.196  54.440  0.00  0.00     0.171 C 
HETATM   17  C   UNK     0      47.624  65.995  54.805  0.00  0.00     0.034 C 
ENDBRANCH  15  16
ENDBRANCH  12  15
ENDBRANCH   8   9
ENDBRANCH   5   8
BRANCH   2  18
HETATM   18  C   UNK     0      48.085  55.755  55.225  0.00  0.00     0.186 C 
HETATM   19  O   UNK     0      47.042  55.494  56.169  0.00  0.00    -0.368 OA
HETATM   20  C   UNK     0      47.463  54.645  57.238  0.00  0.00     0.177 C 
HETATM   21  C   UNK     0      48.575  55.324  58.039  0.00  0.00     0.180 C 
HETATM   22  C   UNK     0      49.744  55.705  57.131  0.00  0.00     0.181 C 
HETATM   23  C   UNK     0      49.264  56.475  55.898  0.00  0.00     0.182 C 
BRANCH  20  24
HETATM   24  C   UNK     0      46.240  54.355  58.101  0.00  0.00     0.198 C 
BRANCH  24  25
HETATM   25  O   UNK     0      46.393  55.025  59.340  0.00  0.00    -0.398 OA
HETATM   26  H   UNK     0      46.028  55.921  59.236  0.00  0.00     0.209 HD
ENDBRANCH  24  25
ENDBRANCH  20  24
BRANCH  21  27
HETATM   27  O   UNK     0      49.036  54.433  59.052  0.00  0.00    -0.390 OA
HETATM   28  H   UNK     0      48.386  53.715  59.138  0.00  0.00     0.210 HD
ENDBRANCH  21  27
BRANCH  22  29
HETATM   29  O   UNK     0      50.640  56.524  57.884  0.00  0.00    -0.390 OA
HETATM   30  H   UNK     0      50.586  57.424  57.519  0.00  0.00     0.210 HD
ENDBRANCH  22  29
BRANCH  23  31
HETATM   31  O   UNK     0      50.337  56.568  54.962  0.00  0.00    -0.390 OA
HETATM   32  H   UNK     0      51.173  56.564  55.459  0.00  0.00     0.210 HD
ENDBRANCH  23  31
ENDBRANCH   2  18
TORSDOF 10
ENDMDL
MODEL 2
REMARK VINA RESULT:      -7.3      3.178      5.620
REMARK  10 active torsions:
REMARK  status: ('A' for Active; 'I' for Inactive)
REMARK    1  A    between atoms: O_3  and  C_8 
REMARK    2  A    between atoms: O_4  and  C_9 
REMARK    3  A    between atoms: O_5  and  C_10 
REMARK    4  A    between atoms: O_6  and  C_14 
REMARK    5  A    between atoms: O_7  and  C_26 
REMARK    6  A    between atoms: O_7  and  C_27 
REMARK    7  A    between atoms: C_11  and  C_13 
REMARK    8  A    between atoms: C_12  and  C_14 
REMARK    9  A    between atoms: C_17  and  C_19 
REMARK   10  A    between atoms: C_19  and  C_21 
ROOT
HETATM    1 Cl   UNK     0      50.309  55.713  54.855  0.00  0.00    -0.084 Cl
HETATM    2  C   UNK     0      48.042  55.260  58.731  0.00  0.00    -0.026 A 
HETATM    3  C   UNK     0      47.368  55.106  57.520  0.00  0.00     0.019 A 
HETATM    4  C   UNK     0      49.405  55.550  58.739  0.00  0.00     0.011 A 
HETATM    5  C   UNK     0      48.058  55.244  56.316  0.00  0.00    -0.032 A 
HETATM    6  C   UNK     0      50.096  55.689  57.536  0.00  0.00     0.025 A 
HETATM    7  C   UNK     0      49.422  55.536  56.324  0.00  0.00     0.040 A 
ENDROOT
BRANCH   5   8
HETATM    8  C   UNK     0      47.300  55.072  55.039  0.00  0.00     0.078 C 
BRANCH   8   9
HETATM    9  C   UNK     0      47.241  56.324  54.190  0.00  0.00    -0.054 A 
HETATM   10  C   UNK     0      47.074  57.551  54.806  0.00  0.00     0.010 A 
HETATM   11  C   UNK     0      47.018  58.703  54.022  0.00  0.00     0.037 A 
HETATM   12  C   UNK     0      47.132  58.610  52.635  0.00  0.00     0.068 A 
HETATM   13  C   UNK     0      47.300  57.364  52.032  0.00  0.00     0.037 A 
HETATM   14  C   UNK     0      47.355  56.211  52.816  0.00  0.00     0.010 A 
BRANCH  12  15
HETATM   15  O   UNK     0      47.079  59.736  51.871  0.00  0.00    -0.352 OA
BRANCH  15  16
HETATM   16  C   UNK     0      48.058  60.741  52.128  0.00  0.00     0.171 C 
HETATM   17  C   UNK     0      49.321  60.405  51.365  0.00  0.00     0.034 C 
ENDBRANCH  15  16
ENDBRANCH  12  15
ENDBRANCH   8   9
ENDBRANCH   5   8
BRANCH   2  18
HETATM   18  C   UNK     0      47.292  55.109  60.040  0.00  0.00     0.186 C 
HETATM   19  O   UNK     0      48.025  55.814  61.046  0.00  0.00    -0.368 OA
HETATM   20  C   UNK     0      47.363  55.820  62.311  0.00  0.00     0.177 C 
HETATM   21  C   UNK     0      47.224  54.391  62.837  0.00  0.00     0.180 C 
HETATM   22  C   UNK     0      46.492  53.509  61.825  0.00  0.00     0.181 C 
HETATM   23  C   UNK     0      47.108  53.634  60.429  0.00  0.00     0.182 C 
BRANCH  20  24
HETATM   24  C   UNK     0      48.185  56.692  63.254  0.00  0.00     0.198 C 
BRANCH  24  25
HETATM   25  O   UNK     0      48.208  58.013  62.742  0.00  0.00    -0.398 OA
HETATM   26  H   UNK     0      48.556  58.593  63.441  0.00  0.00     0.209 HD
ENDBRANCH  24  25
ENDBRANCH  20  24
BRANCH  21  27
HETATM   27  O   UNK     0      46.494  54.409  64.061  0.00  0.00    -0.390 OA
HETATM   28  H   UNK     0      45.738  55.011  63.950  0.00  0.00     0.210 HD
ENDBRANCH  21  27
BRANCH  22  29
HETATM   29  O   UNK     0      46.591  52.154  62.268  0.00  0.00    -0.390 OA
HETATM   30  H   UNK     0      47.535  51.926  62.295  0.00  0.00     0.210 HD
ENDBRANCH  22  29
BRANCH  23  31
HETATM   31  O   UNK     0      46.239  53.015  59.481  0.00  0.00    -0.390 OA
HETATM   32  H   UNK     0      46.689  52.230  59.127  0.00  0.00     0.210 HD
ENDBRANCH  23  31
ENDBRANCH   2  18
TORSDOF 10
ENDMDL
MODEL 3
REMARK VINA RESULT:      -7.2      5.306      8.012
REMARK  10 active torsions:
REMARK  status: ('A' for Active; 'I' for Inactive)
REMARK    1  A    between atoms: O_3  and  C_8 
REMARK    2  A    between atoms: O_4  and  C_9 
REMARK    3  A    between atoms: O_5  and  C_10 
REMARK    4  A    between atoms: O_6  and  C_14 
REMARK    5  A    between atoms: O_7  and  C_26 
REMARK    6  A    between atoms: O_7  and  C_27 
REMARK    7  A    between atoms: C_11  and  C_13 
REMARK    8  A    between atoms: C_12  and  C_14 
REMARK    9  A    between atoms: C_17  and  C_19 
REMARK   10  A    between atoms: C_19  and  C_21 
ROOT
HETATM    1 Cl   UNK     0      45.847  51.215  58.475  0.00  0.00    -0.084 Cl
HETATM    2  C   UNK     0      48.248  53.528  61.517  0.00  0.00    -0.026 A 
HETATM    3  C   UNK     0      47.560  54.217  60.519  0.00  0.00     0.019 A 
HETATM    4  C   UNK     0      48.191  52.136  61.572  0.00  0.00     0.011 A 
HETATM    5  C   UNK     0      46.815  53.513  59.573  0.00  0.00    -0.032 A 
HETATM    6  C   UNK     0      47.447  51.432  60.626  0.00  0.00     0.025 A 
HETATM    7  C   UNK     0      46.759  52.120  59.627  0.00  0.00     0.040 A 
ENDROOT
BRANCH   5   8
HETATM    8  C   UNK     0      46.092  54.287  58.519  0.00  0.00     0.078 C 
BRANCH   8   9
HETATM    9  C   UNK     0      46.950  54.642  57.324  0.00  0.00    -0.054 A 
HETATM   10  C   UNK     0      46.392  55.358  56.280  0.00  0.00     0.010 A 
HETATM   11  C   UNK     0      47.183  55.683  55.179  0.00  0.00     0.037 A 
HETATM   12  C   UNK     0      48.520  55.287  55.139  0.00  0.00     0.068 A 
HETATM   13  C   UNK     0      49.065  54.566  56.201  0.00  0.00     0.037 A 
HETATM   14  C   UNK     0      48.274  54.240  57.302  0.00  0.00     0.010 A 
BRANCH  12  15
HETATM   15  O   UNK     0      49.292  55.607  54.064  0.00  0.00    -0.352 OA
BRANCH  15  16
HETATM   16  C   UNK     0      50.535  54.919  53.930  0.00  0.00     0.171 C 
HETATM   17  C   UNK     0      50.361  53.776  52.951  0.00  0.00     0.034 C 
ENDBRANCH  15  16
ENDBRANCH  12  15
ENDBRANCH   8   9
ENDBRANCH   5   8
BRANCH   2  18
HETATM   18  C   UNK     0      49.057  54.294  62.545  0.00  0.00     0.186 C 
HETATM   19  O   UNK     0      48.409  55.552  62.759  0.00  0.00    -0.368 OA
HETATM   20  C   UNK     0      49.033  56.329  63.782  0.00  0.00     0.177 C 
HETATM   21  C   UNK     0      50.467  56.675  63.377  0.00  0.00     0.180 C 
HETATM   22  C   UNK     0      51.265  55.407  63.070  0.00  0.00     0.181 C 
HETATM   23  C   UNK     0      50.512  54.498  62.095  0.00  0.00     0.182 C 
BRANCH  20  24
HETATM   24  C   UNK     0      48.186  57.581  63.987  0.00  0.00     0.198 C 
BRANCH  24  25
HETATM   25  O   UNK     0      48.617  58.572  63.072  0.00  0.00    -0.398 OA
HETATM   26  H   UNK     0      47.882  58.745  62.458  0.00  0.00     0.209 HD
ENDBRANCH  24  25
ENDBRANCH  20  24
BRANCH  21  27
HETATM   27  O   UNK     0      51.098  57.383  64.441  0.00  0.00    -0.390 OA
HETATM   28  H   UNK     0      50.883  58.326  64.343  0.00  0.00     0.210 HD
ENDBRANCH  21  27
BRANCH  22  29
HETATM   29  O   UNK     0      52.509  55.799  62.489  0.00  0.00    -0.390 OA
HETATM   30  H   UNK     0      52.884  56.499  63.049  0.00  0.00     0.210 HD
ENDBRANCH  22  29
BRANCH  23  31
HETATM   31  O   UNK     0      51.159  53.227  62.053  0.00  0.00    -0.390 OA
HETATM   32  H   UNK     0      51.951  53.272  62.616  0.00  0.00     0.210 HD
ENDBRANCH  23  31
ENDBRANCH   2  18
TORSDOF 10
ENDMDL
MODEL 4
REMARK VINA RESULT:      -7.2     10.364     12.084
REMARK  10 active torsions:
REMARK  status: ('A' for Active; 'I' for Inactive)
REMARK    1  A    between atoms: O_3  and  C_8 
REMARK    2  A    between atoms: O_4  and  C_9 
REMARK    3  A    between atoms: O_5  and  C_10 
REMARK    4  A    between atoms: O_6  and  C_14 
REMARK    5  A    between atoms: O_7  and  C_26 
REMARK    6  A    between atoms: O_7  and  C_27 
REMARK    7  A    between atoms: C_11  and  C_13 
REMARK    8  A    between atoms: C_12  and  C_14 
REMARK    9  A    between atoms: C_17  and  C_19 
REMARK   10  A    between atoms: C_19  and  C_21 
ROOT
HETATM    1 Cl   UNK     0      37.788  65.091  58.332  0.00  0.00    -0.084 Cl
HETATM    2  C   UNK     0      37.987  61.418  55.717  0.00  0.00    -0.026 A 
HETATM    3  C   UNK     0      37.054  62.413  55.431  0.00  0.00     0.019 A 
HETATM    4  C   UNK     0      38.850  61.560  56.802  0.00  0.00     0.011 A 
HETATM    5  C   UNK     0      36.983  63.552  56.232  0.00  0.00    -0.032 A 
HETATM    6  C   UNK     0      38.780  62.699  57.604  0.00  0.00     0.025 A 
HETATM    7  C   UNK     0      37.846  63.695  57.319  0.00  0.00     0.040 A 
ENDROOT
BRANCH   5   8
HETATM    8  C   UNK     0      35.969  64.597  55.894  0.00  0.00     0.078 C 
BRANCH   8   9
HETATM    9  C   UNK     0      36.371  65.487  54.737  0.00  0.00    -0.054 A 
HETATM   10  C   UNK     0      35.898  65.202  53.468  0.00  0.00     0.010 A 
HETATM   11  C   UNK     0      36.270  66.022  52.404  0.00  0.00     0.037 A 
HETATM   12  C   UNK     0      37.109  67.115  52.625  0.00  0.00     0.068 A 
HETATM   13  C   UNK     0      37.576  67.386  53.911  0.00  0.00     0.037 A 
HETATM   14  C   UNK     0      37.204  66.566  54.976  0.00  0.00     0.010 A 
BRANCH  12  15
HETATM   15  O   UNK     0      37.471  67.916  51.585  0.00  0.00    -0.352 OA
BRANCH  15  16
HETATM   16  C   UNK     0      37.838  69.258  51.897  0.00  0.00     0.171 C 
HETATM   17  C   UNK     0      37.181  70.192  50.902  0.00  0.00     0.034 C 
ENDBRANCH  15  16
ENDBRANCH  12  15
ENDBRANCH   8   9
ENDBRANCH   5   8
BRANCH   2  18
HETATM   18  C   UNK     0      38.064  60.179  54.845  0.00  0.00     0.186 C 
HETATM   19  O   UNK     0      38.278  60.609  53.497  0.00  0.00    -0.368 OA
HETATM   20  C   UNK     0      38.460  59.521  52.591  0.00  0.00     0.177 C 
HETATM   21  C   UNK     0      37.197  58.658  52.547  0.00  0.00     0.180 C 
HETATM   22  C   UNK     0      36.825  58.168  53.947  0.00  0.00     0.181 C 
HETATM   23  C   UNK     0      36.793  59.323  54.951  0.00  0.00     0.182 C 
BRANCH  20  24
HETATM   24  C   UNK     0      38.789  60.111  51.225  0.00  0.00     0.198 C 
BRANCH  24  25
HETATM   25  O   UNK     0      38.084  61.331  51.079  0.00  0.00    -0.398 OA
HETATM   26  H   UNK     0      38.656  61.944  50.587  0.00  0.00     0.209 HD
ENDBRANCH  24  25
ENDBRANCH  20  24
BRANCH  21  27
HETATM   27  O   UNK     0      37.424  57.536  51.699  0.00  0.00    -0.390 OA
HETATM   28  H   UNK     0      36.563  57.235  51.362  0.00  0.00     0.210 HD
ENDBRANCH  21  27
BRANCH  22  29
HETATM   29  O   UNK     0      35.532  57.566  53.874  0.00  0.00    -0.390 OA
HETATM   30  H   UNK     0      34.964  58.160  53.355  0.00  0.00     0.210 HD
ENDBRANCH  22  29
BRANCH  23  31
HETATM   31  O   UNK     0      36.711  58.787  56.271  0.00  0.00    -0.390 OA
HETATM   32  H   UNK     0      36.524  59.519  56.883  0.00  0.00     0.210 HD
ENDBRANCH  23  31
ENDBRANCH   2  18
TORSDOF 10
ENDMDL
MODEL 5
REMARK VINA RESULT:      -7.1      4.667      7.863
REMARK  10 active torsions:
REMARK  status: ('A' for Active; 'I' for Inactive)
REMARK    1  A    between atoms: O_3  and  C_8 
REMARK    2  A    between atoms: O_4  and  C_9 
REMARK    3  A    between atoms: O_5  and  C_10 
REMARK    4  A    between atoms: O_6  and  C_14 
REMARK    5  A    between atoms: O_7  and  C_26 
REMARK    6  A    between atoms: O_7  and  C_27 
REMARK    7  A    between atoms: C_11  and  C_13 
REMARK    8  A    between atoms: C_12  and  C_14 
REMARK    9  A    between atoms: C_17  and  C_19 
REMARK   10  A    between atoms: C_19  and  C_21 
ROOT
HETATM    1 Cl   UNK     0      46.880  50.633  58.510  0.00  0.00    -0.084 Cl
HETATM    2  C   UNK     0      47.552  53.679  61.771  0.00  0.00    -0.026 A 
HETATM    3  C   UNK     0      46.873  54.054  60.612  0.00  0.00     0.019 A 
HETATM    4  C   UNK     0      48.017  52.374  61.917  0.00  0.00     0.011 A 
HETATM    5  C   UNK     0      46.659  53.121  59.598  0.00  0.00    -0.032 A 
HETATM    6  C   UNK     0      47.805  51.441  60.903  0.00  0.00     0.025 A 
HETATM    7  C   UNK     0      47.125  51.814  59.743  0.00  0.00     0.040 A 
ENDROOT
BRANCH   5   8
HETATM    8  C   UNK     0      45.928  53.561  58.371  0.00  0.00     0.078 C 
BRANCH   8   9
HETATM    9  C   UNK     0      46.773  54.373  57.412  0.00  0.00    -0.054 A 
HETATM   10  C   UNK     0      48.116  54.071  57.274  0.00  0.00     0.010 A 
HETATM   11  C   UNK     0      48.893  54.822  56.393  0.00  0.00     0.037 A 
HETATM   12  C   UNK     0      48.315  55.860  55.663  0.00  0.00     0.068 A 
HETATM   13  C   UNK     0      46.960  56.150  55.815  0.00  0.00     0.037 A 
HETATM   14  C   UNK     0      46.181  55.400  56.698  0.00  0.00     0.010 A 
BRANCH  12  15
HETATM   15  O   UNK     0      49.075  56.591  54.801  0.00  0.00    -0.352 OA
BRANCH  15  16
HETATM   16  C   UNK     0      49.724  57.747  55.327  0.00  0.00     0.171 C 
HETATM   17  C   UNK     0      49.180  58.976  54.631  0.00  0.00     0.034 C 
ENDBRANCH  15  16
ENDBRANCH  12  15
ENDBRANCH   8   9
ENDBRANCH   5   8
BRANCH   2  18
HETATM   18  C   UNK     0      47.782  54.694  62.874  0.00  0.00     0.186 C 
HETATM   19  O   UNK     0      46.552  54.847  63.589  0.00  0.00    -0.368 OA
HETATM   20  C   UNK     0      46.672  55.715  64.716  0.00  0.00     0.177 C 
HETATM   21  C   UNK     0      47.051  57.124  64.255  0.00  0.00     0.180 C 
HETATM   22  C   UNK     0      48.337  57.097  63.429  0.00  0.00     0.181 C 
HETATM   23  C   UNK     0      48.265  56.044  62.320  0.00  0.00     0.182 C 
BRANCH  20  24
HETATM   24  C   UNK     0      45.335  55.701  65.449  0.00  0.00     0.198 C 
BRANCH  24  25
HETATM   25  O   UNK     0      45.560  56.046  66.804  0.00  0.00    -0.398 OA
HETATM   26  H   UNK     0      45.483  55.232  67.331  0.00  0.00     0.209 HD
ENDBRANCH  24  25
ENDBRANCH  20  24
BRANCH  21  27
HETATM   27  O   UNK     0      47.241  57.956  65.397  0.00  0.00    -0.390 OA
HETATM   28  H   UNK     0      47.664  57.422  66.091  0.00  0.00     0.210 HD
ENDBRANCH  21  27
BRANCH  22  29
HETATM   29  O   UNK     0      48.514  58.389  62.847  0.00  0.00    -0.390 OA
HETATM   30  H   UNK     0      47.848  58.485  62.146  0.00  0.00     0.210 HD
ENDBRANCH  22  29
BRANCH  23  31
HETATM   31  O   UNK     0      49.566  55.870  61.760  0.00  0.00    -0.390 OA
HETATM   32  H   UNK     0      50.220  56.115  62.435  0.00  0.00     0.210 HD
ENDBRANCH  23  31
ENDBRANCH   2  18
TORSDOF 10
ENDMDL
MODEL 6
REMARK VINA RESULT:      -7.1     10.299     13.086
REMARK  10 active torsions:
REMARK  status: ('A' for Active; 'I' for Inactive)
REMARK    1  A    between atoms: O_3  and  C_8 
REMARK    2  A    between atoms: O_4  and  C_9 
REMARK    3  A    between atoms: O_5  and  C_10 
REMARK    4  A    between atoms: O_6  and  C_14 
REMARK    5  A    between atoms: O_7  and  C_26 
REMARK    6  A    between atoms: O_7  and  C_27 
REMARK    7  A    between atoms: C_11  and  C_13 
REMARK    8  A    between atoms: C_12  and  C_14 
REMARK    9  A    between atoms: C_17  and  C_19 
REMARK   10  A    between atoms: C_19  and  C_21 
ROOT
HETATM    1 Cl   UNK     0      39.814  59.392  56.491  0.00  0.00    -0.084 Cl
HETATM    2  C   UNK     0      37.214  63.072  56.241  0.00  0.00    -0.026 A 
HETATM    3  C   UNK     0      37.050  62.051  55.305  0.00  0.00     0.019 A 
HETATM    4  C   UNK     0      38.173  62.952  57.245  0.00  0.00     0.011 A 
HETATM    5  C   UNK     0      37.848  60.910  55.373  0.00  0.00    -0.032 A 
HETATM    6  C   UNK     0      38.972  61.811  57.312  0.00  0.00     0.025 A 
HETATM    7  C   UNK     0      38.809  60.790  56.376  0.00  0.00     0.040 A 
ENDROOT
BRANCH   5   8
HETATM    8  C   UNK     0      37.642  59.838  54.351  0.00  0.00     0.078 C 
BRANCH   8   9
HETATM    9  C   UNK     0      38.346  60.102  53.037  0.00  0.00    -0.054 A 
HETATM   10  C   UNK     0      39.728  60.072  52.994  0.00  0.00     0.010 A 
HETATM   11  C   UNK     0      40.376  60.317  51.783  0.00  0.00     0.037 A 
HETATM   12  C   UNK     0      39.630  60.587  50.635  0.00  0.00     0.068 A 
HETATM   13  C   UNK     0      38.237  60.613  50.699  0.00  0.00     0.037 A 
HETATM   14  C   UNK     0      37.589  60.368  51.910  0.00  0.00     0.010 A 
BRANCH  12  15
HETATM   15  O   UNK     0      40.263  60.824  49.453  0.00  0.00    -0.352 OA
BRANCH  15  16
HETATM   16  C   UNK     0      41.628  60.420  49.356  0.00  0.00     0.171 C 
HETATM   17  C   UNK     0      42.510  61.650  49.397  0.00  0.00     0.034 C 
ENDBRANCH  15  16
ENDBRANCH  12  15
ENDBRANCH   8   9
ENDBRANCH   5   8
BRANCH   2  18
HETATM   18  C   UNK     0      36.345  64.313  56.168  0.00  0.00     0.186 C 
HETATM   19  O   UNK     0      35.103  64.013  56.812  0.00  0.00    -0.368 OA
HETATM   20  C   UNK     0      34.232  65.142  56.887  0.00  0.00     0.177 C 
HETATM   21  C   UNK     0      33.857  65.609  55.479  0.00  0.00     0.180 C 
HETATM   22  C   UNK     0      35.109  65.920  54.659  0.00  0.00     0.181 C 
HETATM   23  C   UNK     0      36.114  64.767  54.718  0.00  0.00     0.182 C 
BRANCH  20  24
HETATM   24  C   UNK     0      33.004  64.721  57.688  0.00  0.00     0.198 C 
BRANCH  24  25
HETATM   25  O   UNK     0      33.438  64.070  58.869  0.00  0.00    -0.398 OA
HETATM   26  H   UNK     0      32.758  63.421  59.114  0.00  0.00     0.209 HD
ENDBRANCH  24  25
ENDBRANCH  20  24
BRANCH  21  27
HETATM   27  O   UNK     0      33.051  66.781  55.572  0.00  0.00    -0.390 OA
HETATM   28  H   UNK     0      32.412  66.650  56.293  0.00  0.00     0.210 HD
ENDBRANCH  21  27
BRANCH  22  29
HETATM   29  O   UNK     0      34.708  66.131  53.304  0.00  0.00    -0.390 OA
HETATM   30  H   UNK     0      34.720  67.090  53.144  0.00  0.00     0.210 HD
ENDBRANCH  22  29
BRANCH  23  31
HETATM   31  O   UNK     0      37.358  65.207  54.173  0.00  0.00    -0.390 OA
HETATM   32  H   UNK     0      38.071  64.881  54.748  0.00  0.00     0.210 HD
ENDBRANCH  23  31
ENDBRANCH   2  18
TORSDOF 10
ENDMDL
MODEL 7
REMARK VINA RESULT:      -7.0     10.331     12.181
REMARK  10 active torsions:
REMARK  status: ('A' for Active; 'I' for Inactive)
REMARK    1  A    between atoms: O_3  and  C_8 
REMARK    2  A    between atoms: O_4  and  C_9 
REMARK    3  A    between atoms: O_5  and  C_10 
REMARK    4  A    between atoms: O_6  and  C_14 
REMARK    5  A    between atoms: O_7  and  C_26 
REMARK    6  A    between atoms: O_7  and  C_27 
REMARK    7  A    between atoms: C_11  and  C_13 
REMARK    8  A    between atoms: C_12  and  C_14 
REMARK    9  A    between atoms: C_17  and  C_19 
REMARK   10  A    between atoms: C_19  and  C_21 
ROOT
HETATM    1 Cl   UNK     0      37.606  65.680  57.828  0.00  0.00    -0.084 Cl
HETATM    2  C   UNK     0      37.359  62.268  54.883  0.00  0.00    -0.026 A 
HETATM    3  C   UNK     0      36.556  63.393  54.699  0.00  0.00     0.019 A 
HETATM    4  C   UNK     0      38.230  62.203  55.969  0.00  0.00     0.011 A 
HETATM    5  C   UNK     0      36.623  64.453  55.602  0.00  0.00    -0.032 A 
HETATM    6  C   UNK     0      38.298  63.262  56.873  0.00  0.00     0.025 A 
HETATM    7  C   UNK     0      37.495  64.388  56.689  0.00  0.00     0.040 A 
ENDROOT
BRANCH   5   8
HETATM    8  C   UNK     0      35.746  65.641  55.370  0.00  0.00     0.078 C 
BRANCH   8   9
HETATM    9  C   UNK     0      36.254  66.575  54.293  0.00  0.00    -0.054 A 
HETATM   10  C   UNK     0      37.614  66.641  54.042  0.00  0.00     0.010 A 
HETATM   11  C   UNK     0      38.081  67.504  53.051  0.00  0.00     0.037 A 
HETATM   12  C   UNK     0      37.181  68.286  52.326  0.00  0.00     0.068 A 
HETATM   13  C   UNK     0      35.815  68.206  52.593  0.00  0.00     0.037 A 
HETATM   14  C   UNK     0      35.347  67.343  53.585  0.00  0.00     0.010 A 
BRANCH  12  15
HETATM   15  O   UNK     0      37.639  69.126  51.357  0.00  0.00    -0.352 OA
BRANCH  15  16
HETATM   16  C   UNK     0      36.967  70.376  51.212  0.00  0.00     0.171 C 
HETATM   17  C   UNK     0      36.974  70.772  49.751  0.00  0.00     0.034 C 
ENDBRANCH  15  16
ENDBRANCH  12  15
ENDBRANCH   8   9
ENDBRANCH   5   8
BRANCH   2  18
HETATM   18  C   UNK     0      37.285  61.116  53.900  0.00  0.00     0.186 C 
HETATM   19  O   UNK     0      36.792  59.973  54.605  0.00  0.00    -0.368 OA
HETATM   20  C   UNK     0      36.591  58.843  53.756  0.00  0.00     0.177 C 
HETATM   21  C   UNK     0      37.924  58.401  53.149  0.00  0.00     0.180 C 
HETATM   22  C   UNK     0      38.588  59.555  52.399  0.00  0.00     0.181 C 
HETATM   23  C   UNK     0      38.651  60.817  53.262  0.00  0.00     0.182 C 
BRANCH  20  24
HETATM   24  C   UNK     0      35.961  57.741  54.601  0.00  0.00     0.198 C 
BRANCH  24  25
HETATM   25  O   UNK     0      35.442  56.749  53.734  0.00  0.00    -0.398 OA
HETATM   26  H   UNK     0      36.156  56.484  53.129  0.00  0.00     0.209 HD
ENDBRANCH  24  25
ENDBRANCH  20  24
BRANCH  21  27
HETATM   27  O   UNK     0      37.694  57.322  52.245  0.00  0.00    -0.390 OA
HETATM   28  H   UNK     0      38.549  57.062  51.864  0.00  0.00     0.210 HD
ENDBRANCH  21  27
BRANCH  22  29
HETATM   29  O   UNK     0      39.914  59.151  52.052  0.00  0.00    -0.390 OA
HETATM   30  H   UNK     0      39.955  58.184  52.141  0.00  0.00     0.210 HD
ENDBRANCH  22  29
BRANCH  23  31
HETATM   31  O   UNK     0      39.024  61.924  52.441  0.00  0.00    -0.390 OA
HETATM   32  H   UNK     0      39.907  62.222  52.719  0.00  0.00     0.210 HD
ENDBRANCH  23  31
ENDBRANCH   2  18
TORSDOF 10
ENDMDL
MODEL 8
REMARK VINA RESULT:      -6.8      3.884      5.428
REMARK  10 active torsions:
REMARK  status: ('A' for Active; 'I' for Inactive)
REMARK    1  A    between atoms: O_3  and  C_8 
REMARK    2  A    between atoms: O_4  and  C_9 
REMARK    3  A    between atoms: O_5  and  C_10 
REMARK    4  A    between atoms: O_6  and  C_14 
REMARK    5  A    between atoms: O_7  and  C_26 
REMARK    6  A    between atoms: O_7  and  C_27 
REMARK    7  A    between atoms: C_11  and  C_13 
REMARK    8  A    between atoms: C_12  and  C_14 
REMARK    9  A    between atoms: C_17  and  C_19 
REMARK   10  A    between atoms: C_19  and  C_21 
ROOT
HETATM    1 Cl   UNK     0      43.059  61.652  51.486  0.00  0.00    -0.084 Cl
HETATM    2  C   UNK     0      46.229  58.903  53.150  0.00  0.00    -0.026 A 
HETATM    3  C   UNK     0      45.584  59.800  54.000  0.00  0.00     0.019 A 
HETATM    4  C   UNK     0      45.893  58.857  51.798  0.00  0.00     0.011 A 
HETATM    5  C   UNK     0      44.604  60.655  53.497  0.00  0.00    -0.032 A 
HETATM    6  C   UNK     0      44.913  59.712  51.294  0.00  0.00     0.025 A 
HETATM    7  C   UNK     0      44.268  60.610  52.144  0.00  0.00     0.040 A 
ENDROOT
BRANCH   5   8
HETATM    8  C   UNK     0      43.936  61.603  54.440  0.00  0.00     0.078 C 
BRANCH   8   9
HETATM    9  C   UNK     0      42.768  60.998  55.191  0.00  0.00    -0.054 A 
HETATM   10  C   UNK     0      43.006  60.304  56.364  0.00  0.00     0.010 A 
HETATM   11  C   UNK     0      41.929  59.746  57.053  0.00  0.00     0.037 A 
HETATM   12  C   UNK     0      40.633  59.892  56.558  0.00  0.00     0.068 A 
HETATM   13  C   UNK     0      40.413  60.595  55.374  0.00  0.00     0.037 A 
HETATM   14  C   UNK     0      41.490  61.153  54.684  0.00  0.00     0.010 A 
BRANCH  12  15
HETATM   15  O   UNK     0      39.583  59.348  57.234  0.00  0.00    -0.352 OA
BRANCH  15  16
HETATM   16  C   UNK     0      38.422  60.162  57.392  0.00  0.00     0.171 C 
HETATM   17  C   UNK     0      37.498  59.511  58.400  0.00  0.00     0.034 C 
ENDBRANCH  15  16
ENDBRANCH  12  15
ENDBRANCH   8   9
ENDBRANCH   5   8
BRANCH   2  18
HETATM   18  C   UNK     0      47.295  57.973  53.698  0.00  0.00     0.186 C 
HETATM   19  O   UNK     0      46.701  57.202  54.746  0.00  0.00    -0.368 OA
HETATM   20  C   UNK     0      47.589  56.220  55.281  0.00  0.00     0.177 C 
HETATM   21  C   UNK     0      48.804  56.901  55.915  0.00  0.00     0.180 C 
HETATM   22  C   UNK     0      49.509  57.804  54.903  0.00  0.00     0.181 C 
HETATM   23  C   UNK     0      48.520  58.745  54.212  0.00  0.00     0.182 C 
BRANCH  20  24
HETATM   24  C   UNK     0      46.806  55.399  56.299  0.00  0.00     0.198 C 
BRANCH  24  25
HETATM   25  O   UNK     0      45.615  56.095  56.619  0.00  0.00    -0.398 OA
HETATM   26  H   UNK     0      44.912  55.759  56.037  0.00  0.00     0.209 HD
ENDBRANCH  24  25
ENDBRANCH  20  24
BRANCH  21  27
HETATM   27  O   UNK     0      49.715  55.905  56.373  0.00  0.00    -0.390 OA
HETATM   28  H   UNK     0      50.433  55.832  55.722  0.00  0.00     0.210 HD
ENDBRANCH  21  27
BRANCH  22  29
HETATM   29  O   UNK     0      50.486  58.574  55.606  0.00  0.00    -0.390 OA
HETATM   30  H   UNK     0      51.354  58.357  55.227  0.00  0.00     0.210 HD
ENDBRANCH  22  29
BRANCH  23  31
HETATM   31  O   UNK     0      49.168  59.367  53.103  0.00  0.00    -0.390 OA
HETATM   32  H   UNK     0      49.237  60.318  53.288  0.00  0.00     0.210 HD
ENDBRANCH  23  31
ENDBRANCH   2  18
TORSDOF 10
ENDMDL
MODEL 9
REMARK VINA RESULT:      -6.8     26.882     30.060
REMARK  10 active torsions:
REMARK  status: ('A' for Active; 'I' for Inactive)
REMARK    1  A    between atoms: O_3  and  C_8 
REMARK    2  A    between atoms: O_4  and  C_9 
REMARK    3  A    between atoms: O_5  and  C_10 
REMARK    4  A    between atoms: O_6  and  C_14 
REMARK    5  A    between atoms: O_7  and  C_26 
REMARK    6  A    between atoms: O_7  and  C_27 
REMARK    7  A    between atoms: C_11  and  C_13 
REMARK    8  A    between atoms: C_12  and  C_14 
REMARK    9  A    between atoms: C_17  and  C_19 
REMARK   10  A    between atoms: C_19  and  C_21 
ROOT
HETATM    1 Cl   UNK     0      36.318  56.877  32.375  0.00  0.00    -0.084 Cl
HETATM    2  C   UNK     0      34.755  60.668  30.489  0.00  0.00    -0.026 A 
HETATM    3  C   UNK     0      34.337  59.433  29.995  0.00  0.00     0.019 A 
HETATM    4  C   UNK     0      35.648  60.726  31.558  0.00  0.00     0.011 A 
HETATM    5  C   UNK     0      34.813  58.255  30.569  0.00  0.00    -0.032 A 
HETATM    6  C   UNK     0      36.125  59.549  32.132  0.00  0.00     0.025 A 
HETATM    7  C   UNK     0      35.707  58.313  31.639  0.00  0.00     0.040 A 
ENDROOT
BRANCH   5   8
HETATM    8  C   UNK     0      34.342  56.951  30.011  0.00  0.00     0.078 C 
BRANCH   8   9
HETATM    9  C   UNK     0      35.215  56.410  28.899  0.00  0.00    -0.054 A 
HETATM   10  C   UNK     0      36.108  55.390  29.177  0.00  0.00     0.010 A 
HETATM   11  C   UNK     0      36.913  54.894  28.152  0.00  0.00     0.037 A 
HETATM   12  C   UNK     0      36.812  55.425  26.866  0.00  0.00     0.068 A 
HETATM   13  C   UNK     0      35.907  56.453  26.605  0.00  0.00     0.037 A 
HETATM   14  C   UNK     0      35.102  56.950  27.630  0.00  0.00     0.010 A 
BRANCH  12  15
HETATM   15  O   UNK     0      37.598  54.938  25.866  0.00  0.00    -0.352 OA
BRANCH  15  16
HETATM   16  C   UNK     0      39.004  54.905  26.103  0.00  0.00     0.171 C 
HETATM   17  C   UNK     0      39.572  56.293  25.897  0.00  0.00     0.034 C 
ENDBRANCH  15  16
ENDBRANCH  12  15
ENDBRANCH   8   9
ENDBRANCH   5   8
BRANCH   2  18
HETATM   18  C   UNK     0      34.236  61.948  29.864  0.00  0.00     0.186 C 
HETATM   19  O   UNK     0      33.085  62.360  30.608  0.00  0.00    -0.368 OA
HETATM   20  C   UNK     0      32.560  63.612  30.166  0.00  0.00     0.177 C 
HETATM   21  C   UNK     0      32.087  63.500  28.716  0.00  0.00     0.180 C 
HETATM   22  C   UNK     0      33.221  63.017  27.811  0.00  0.00     0.181 C 
HETATM   23  C   UNK     0      33.890  61.763  28.378  0.00  0.00     0.182 C 
BRANCH  20  24
HETATM   24  C   UNK     0      31.418  63.987  31.105  0.00  0.00     0.198 C 
BRANCH  24  25
HETATM   25  O   UNK     0      31.545  65.356  31.446  0.00  0.00    -0.398 OA
HETATM   26  H   UNK     0      31.335  65.877  30.652  0.00  0.00     0.209 HD
ENDBRANCH  24  25
ENDBRANCH  20  24
BRANCH  21  27
HETATM   27  O   UNK     0      31.638  64.777  28.268  0.00  0.00    -0.390 OA
HETATM   28  H   UNK     0      30.841  65.009  28.773  0.00  0.00     0.210 HD
ENDBRANCH  21  27
BRANCH  22  29
HETATM   29  O   UNK     0      32.666  62.721  26.529  0.00  0.00    -0.390 OA
HETATM   30  H   UNK     0      31.853  62.209  26.676  0.00  0.00     0.210 HD
ENDBRANCH  22  29
BRANCH  23  31
HETATM   31  O   UNK     0      35.095  61.513  27.656  0.00  0.00    -0.390 OA
HETATM   32  H   UNK     0      35.786  61.273  28.296  0.00  0.00     0.210 HD
ENDBRANCH  23  31
ENDBRANCH   2  18
TORSDOF 10
ENDMDL
