REMARK VINA RESULT:      -7.6      3.642      5.747
REMARK  10 active torsions:
REMARK  status: ('A' for Active; 'I' for Inactive)
REMARK    1  A    between atoms: O_3  and  C_8 
REMARK    2  A    between atoms: O_4  and  C_9 
REMARK    3  A    between atoms: O_5  and  C_10 
REMARK    4  A    between atoms: O_6  and  C_14 
REMARK    5  A    between atoms: O_7  and  C_26 
REMARK    6  A    between atoms: O_7  and  C_27 
REMARK    7  A    between atoms: C_11  and  C_13 
REMARK    8  A    between atoms: C_12  and  C_14 
REMARK    9  A    between atoms: C_17  and  C_19 
REMARK   10  A    between atoms: C_19  and  C_21 
ROOT
HETATM    1 Cl   UNK     0      45.884  50.771  58.451  0.00  0.00    -0.084 Cl
HETATM    2  C   UNK     0      48.290  53.278  61.331  0.00  0.00    -0.026 A 
HETATM    3  C   UNK     0      47.515  53.906  60.356  0.00  0.00     0.019 A 
HETATM    4  C   UNK     0      48.317  51.887  61.412  0.00  0.00     0.011 A 
HETATM    5  C   UNK     0      46.768  53.142  59.461  0.00  0.00    -0.032 A 
HETATM    6  C   UNK     0      47.571  51.122  60.517  0.00  0.00     0.025 A 
HETATM    7  C   UNK     0      46.796  51.750  59.541  0.00  0.00     0.040 A 
ENDROOT
BRANCH   5   8
HETATM    8  C   UNK     0      45.951  53.852  58.430  0.00  0.00     0.078 C 
BRANCH   8   9
HETATM    9  C   UNK     0      46.775  54.548  57.369  0.00  0.00    -0.054 A 
HETATM   10  C   UNK     0      48.083  54.148  57.159  0.00  0.00     0.010 A 
HETATM   11  C   UNK     0      48.842  54.791  56.182  0.00  0.00     0.037 A 
HETATM   12  C   UNK     0      48.281  55.823  55.430  0.00  0.00     0.068 A 
HETATM   13  C   UNK     0      46.962  56.213  55.656  0.00  0.00     0.037 A 
HETATM   14  C   UNK     0      46.202  55.570  56.633  0.00  0.00     0.010 A 
BRANCH  12  15
HETATM   15  O   UNK     0      49.023  56.449  54.474  0.00  0.00    -0.352 OA
BRANCH  15  16
HETATM   16  C   UNK     0      48.766  57.835  54.258  0.00  0.00     0.171 C 
HETATM   17  C   UNK     0      49.749  58.652  55.070  0.00  0.00     0.034 C 
ENDBRANCH  15  16
ENDBRANCH  12  15
ENDBRANCH   8   9
ENDBRANCH   5   8
BRANCH   2  18
HETATM   18  C   UNK     0      49.102  54.110  62.305  0.00  0.00     0.186 C 
HETATM   19  O   UNK     0      48.369  55.310  62.568  0.00  0.00    -0.368 OA
HETATM   20  C   UNK     0      48.995  56.137  63.549  0.00  0.00     0.177 C 
HETATM   21  C   UNK     0      50.364  56.600  63.048  0.00  0.00     0.180 C 
HETATM   22  C   UNK     0      51.241  55.402  62.681  0.00  0.00     0.181 C 
HETATM   23  C   UNK     0      50.501  54.433  61.756  0.00  0.00     0.182 C 
BRANCH  20  24
HETATM   24  C   UNK     0      48.064  57.315  63.818  0.00  0.00     0.198 C 
BRANCH  24  25
HETATM   25  O   UNK     0      48.405  58.370  62.937  0.00  0.00    -0.398 OA
HETATM   26  H   UNK     0      47.995  58.179  62.076  0.00  0.00     0.209 HD
ENDBRANCH  24  25
ENDBRANCH  20  24
BRANCH  21  27
HETATM   27  O   UNK     0      51.006  57.359  64.069  0.00  0.00    -0.390 OA
HETATM   28  H   UNK     0      51.845  57.695  63.711  0.00  0.00     0.210 HD
ENDBRANCH  21  27
BRANCH  22  29
HETATM   29  O   UNK     0      52.406  55.896  62.018  0.00  0.00    -0.390 OA
HETATM   30  H   UNK     0      52.260  56.840  61.839  0.00  0.00     0.210 HD
ENDBRANCH  22  29
BRANCH  23  31
HETATM   31  O   UNK     0      51.246  53.219  61.664  0.00  0.00    -0.390 OA
HETATM   32  H   UNK     0      51.922  53.226  62.362  0.00  0.00     0.210 HD
ENDBRANCH  23  31
ENDBRANCH   2  18
TORSDOF 10
