REMARK VINA RESULT:      -7.3      4.925      7.683
REMARK  10 active torsions:
REMARK  status: ('A' for Active; 'I' for Inactive)
REMARK    1  A    between atoms: O_3  and  C_8 
REMARK    2  A    between atoms: O_4  and  C_9 
REMARK    3  A    between atoms: O_5  and  C_10 
REMARK    4  A    between atoms: O_6  and  C_14 
REMARK    5  A    between atoms: O_7  and  C_26 
REMARK    6  A    between atoms: O_7  and  C_27 
REMARK    7  A    between atoms: C_11  and  C_13 
REMARK    8  A    between atoms: C_12  and  C_14 
REMARK    9  A    between atoms: C_17  and  C_19 
REMARK   10  A    between atoms: C_19  and  C_21 
ROOT
HETATM    1 Cl   UNK     0      43.329  61.809  51.878  0.00  0.00    -0.084 Cl
HETATM    2  C   UNK     0      46.202  58.772  53.579  0.00  0.00    -0.026 A 
HETATM    3  C   UNK     0      45.510  59.620  54.443  0.00  0.00     0.019 A 
HETATM    4  C   UNK     0      46.005  58.864  52.202  0.00  0.00     0.011 A 
HETATM    5  C   UNK     0      44.620  60.563  53.929  0.00  0.00    -0.032 A 
HETATM    6  C   UNK     0      45.115  59.807  51.688  0.00  0.00     0.025 A 
HETATM    7  C   UNK     0      44.422  60.656  52.551  0.00  0.00     0.040 A 
ENDROOT
BRANCH   5   8
HETATM    8  C   UNK     0      43.897  61.454  54.887  0.00  0.00     0.078 C 
BRANCH   8   9
HETATM    9  C   UNK     0      42.620  60.854  55.434  0.00  0.00    -0.054 A 
HETATM   10  C   UNK     0      41.429  61.070  54.763  0.00  0.00     0.010 A 
HETATM   11  C   UNK     0      40.253  60.519  55.270  0.00  0.00     0.037 A 
HETATM   12  C   UNK     0      40.286  59.759  56.439  0.00  0.00     0.068 A 
HETATM   13  C   UNK     0      41.495  59.552  57.103  0.00  0.00     0.037 A 
HETATM   14  C   UNK     0      42.672  60.104  56.596  0.00  0.00     0.010 A 
BRANCH  12  15
HETATM   15  O   UNK     0      39.137  59.219  56.932  0.00  0.00    -0.352 OA
BRANCH  15  16
HETATM   16  C   UNK     0      37.909  59.695  56.383  0.00  0.00     0.171 C 
HETATM   17  C   UNK     0      37.216  60.566  57.409  0.00  0.00     0.034 C 
ENDBRANCH  15  16
ENDBRANCH  12  15
ENDBRANCH   8   9
ENDBRANCH   5   8
BRANCH   2  18
HETATM   18  C   UNK     0      47.169  57.747  54.139  0.00  0.00     0.186 C 
HETATM   19  O   UNK     0      46.531  57.107  55.248  0.00  0.00    -0.368 OA
HETATM   20  C   UNK     0      47.315  56.051  55.804  0.00  0.00     0.177 C 
HETATM   21  C   UNK     0      48.628  56.608  56.357  0.00  0.00     0.180 C 
HETATM   22  C   UNK     0      49.395  57.366  55.274  0.00  0.00     0.181 C 
HETATM   23  C   UNK     0      48.499  58.387  54.567  0.00  0.00     0.182 C 
BRANCH  20  24
HETATM   24  C   UNK     0      46.480  55.385  56.892  0.00  0.00     0.198 C 
BRANCH  24  25
HETATM   25  O   UNK     0      47.100  54.163  57.251  0.00  0.00    -0.398 OA
HETATM   26  H   UNK     0      47.394  53.730  56.431  0.00  0.00     0.209 HD
ENDBRANCH  24  25
ENDBRANCH  20  24
BRANCH  21  27
HETATM   27  O   UNK     0      49.429  55.532  56.837  0.00  0.00    -0.390 OA
HETATM   28  H   UNK     0      48.905  55.033  57.486  0.00  0.00     0.210 HD
ENDBRANCH  21  27
BRANCH  22  29
HETATM   29  O   UNK     0      50.486  58.045  55.899  0.00  0.00    -0.390 OA
HETATM   30  H   UNK     0      51.054  58.393  55.191  0.00  0.00     0.210 HD
ENDBRANCH  22  29
BRANCH  23  31
HETATM   31  O   UNK     0      49.171  58.868  53.404  0.00  0.00    -0.390 OA
HETATM   32  H   UNK     0      49.469  59.776  53.581  0.00  0.00     0.210 HD
ENDBRANCH  23  31
ENDBRANCH   2  18
TORSDOF 10
