REMARK VINA RESULT:      -7.6     14.601     17.533
REMARK  10 active torsions:
REMARK  status: ('A' for Active; 'I' for Inactive)
REMARK    1  A    between atoms: O_3  and  C_8 
REMARK    2  A    between atoms: O_4  and  C_9 
REMARK    3  A    between atoms: O_5  and  C_10 
REMARK    4  A    between atoms: O_6  and  C_14 
REMARK    5  A    between atoms: O_7  and  C_26 
REMARK    6  A    between atoms: O_7  and  C_27 
REMARK    7  A    between atoms: C_11  and  C_13 
REMARK    8  A    between atoms: C_12  and  C_14 
REMARK    9  A    between atoms: C_17  and  C_19 
REMARK   10  A    between atoms: C_19  and  C_21 
ROOT
HETATM    1 Cl   UNK     0      37.839  65.273  58.288  0.00  0.00    -0.084 Cl
HETATM    2  C   UNK     0      38.072  61.475  55.863  0.00  0.00    -0.026 A 
HETATM    3  C   UNK     0      37.112  62.435  55.543  0.00  0.00     0.019 A 
HETATM    4  C   UNK     0      38.950  61.691  56.923  0.00  0.00     0.011 A 
HETATM    5  C   UNK     0      37.031  63.612  56.286  0.00  0.00    -0.032 A 
HETATM    6  C   UNK     0      38.869  62.868  57.666  0.00  0.00     0.025 A 
HETATM    7  C   UNK     0      37.909  63.829  57.347  0.00  0.00     0.040 A 
ENDROOT
BRANCH   5   8
HETATM    8  C   UNK     0      35.989  64.617  55.912  0.00  0.00     0.078 C 
BRANCH   8   9
HETATM    9  C   UNK     0      36.392  65.517  54.764  0.00  0.00    -0.054 A 
HETATM   10  C   UNK     0      37.326  66.514  54.982  0.00  0.00     0.010 A 
HETATM   11  C   UNK     0      37.694  67.344  53.924  0.00  0.00     0.037 A 
HETATM   12  C   UNK     0      37.124  67.163  52.664  0.00  0.00     0.068 A 
HETATM   13  C   UNK     0      36.184  66.152  52.462  0.00  0.00     0.037 A 
HETATM   14  C   UNK     0      35.815  65.322  53.521  0.00  0.00     0.010 A 
BRANCH  12  15
HETATM   15  O   UNK     0      37.487  67.972  51.631  0.00  0.00    -0.352 OA
BRANCH  15  16
HETATM   16  C   UNK     0      37.669  69.356  51.924  0.00  0.00     0.171 C 
HETATM   17  C   UNK     0      37.189  70.177  50.746  0.00  0.00     0.034 C 
ENDBRANCH  15  16
ENDBRANCH  12  15
ENDBRANCH   8   9
ENDBRANCH   5   8
BRANCH   2  18
HETATM   18  C   UNK     0      38.160  60.195  55.054  0.00  0.00     0.186 C 
HETATM   19  O   UNK     0      38.456  60.554  53.701  0.00  0.00    -0.368 OA
HETATM   20  C   UNK     0      38.655  59.420  52.858  0.00  0.00     0.177 C 
HETATM   21  C   UNK     0      37.373  58.588  52.786  0.00  0.00     0.180 C 
HETATM   22  C   UNK     0      36.915  58.174  54.185  0.00  0.00     0.181 C 
HETATM   23  C   UNK     0      36.862  59.376  55.132  0.00  0.00     0.182 C 
BRANCH  20  24
HETATM   24  C   UNK     0      39.071  59.937  51.485  0.00  0.00     0.198 C 
BRANCH  24  25
HETATM   25  O   UNK     0      40.434  59.614  51.276  0.00  0.00    -0.398 OA
HETATM   26  H   UNK     0      40.634  59.773  50.337  0.00  0.00     0.209 HD
ENDBRANCH  24  25
ENDBRANCH  20  24
BRANCH  21  27
HETATM   27  O   UNK     0      37.613  57.421  52.004  0.00  0.00    -0.390 OA
HETATM   28  H   UNK     0      38.538  57.153  52.140  0.00  0.00     0.210 HD
ENDBRANCH  21  27
BRANCH  22  29
HETATM   29  O   UNK     0      35.612  57.602  54.071  0.00  0.00    -0.390 OA
HETATM   30  H   UNK     0      35.198  57.645  54.949  0.00  0.00     0.210 HD
ENDBRANCH  22  29
BRANCH  23  31
HETATM   31  O   UNK     0      36.697  58.906  56.469  0.00  0.00    -0.390 OA
HETATM   32  H   UNK     0      36.832  59.657  57.071  0.00  0.00     0.210 HD
ENDBRANCH  23  31
ENDBRANCH   2  18
TORSDOF 10
