MODEL 1
REMARK VINA RESULT:      -7.8      0.000      0.000
REMARK  10 active torsions:
REMARK  status: ('A' for Active; 'I' for Inactive)
REMARK    1  A    between atoms: O_3  and  C_8 
REMARK    2  A    between atoms: O_4  and  C_9 
REMARK    3  A    between atoms: O_5  and  C_10 
REMARK    4  A    between atoms: O_6  and  C_14 
REMARK    5  A    between atoms: O_7  and  C_26 
REMARK    6  A    between atoms: O_7  and  C_27 
REMARK    7  A    between atoms: C_11  and  C_13 
REMARK    8  A    between atoms: C_12  and  C_14 
REMARK    9  A    between atoms: C_17  and  C_19 
REMARK   10  A    between atoms: C_19  and  C_21 
ROOT
HETATM    1 Cl   UNK     0      50.312  55.815  54.782  0.00  0.00    -0.084 Cl
HETATM    2  C   UNK     0      48.063  55.276  58.657  0.00  0.00    -0.026 A 
HETATM    3  C   UNK     0      47.403  55.068  57.447  0.00  0.00     0.019 A 
HETATM    4  C   UNK     0      49.407  55.646  58.666  0.00  0.00     0.011 A 
HETATM    5  C   UNK     0      48.088  55.232  56.243  0.00  0.00    -0.032 A 
HETATM    6  C   UNK     0      50.092  55.811  57.463  0.00  0.00     0.025 A 
HETATM    7  C   UNK     0      49.432  55.603  56.251  0.00  0.00     0.040 A 
ENDROOT
BRANCH   5   8
HETATM    8  C   UNK     0      47.346  55.000  54.966  0.00  0.00     0.078 C 
BRANCH   8   9
HETATM    9  C   UNK     0      47.100  56.261  54.164  0.00  0.00    -0.054 A 
HETATM   10  C   UNK     0      46.625  57.390  54.808  0.00  0.00     0.010 A 
HETATM   11  C   UNK     0      46.398  58.549  54.068  0.00  0.00     0.037 A 
HETATM   12  C   UNK     0      46.650  58.562  52.696  0.00  0.00     0.068 A 
HETATM   13  C   UNK     0      47.128  57.415  52.064  0.00  0.00     0.037 A 
HETATM   14  C   UNK     0      47.355  56.254  52.804  0.00  0.00     0.010 A 
BRANCH  12  15
HETATM   15  O   UNK     0      46.430  59.696  51.975  0.00  0.00    -0.352 OA
BRANCH  15  16
HETATM   16  C   UNK     0      46.058  59.533  50.607  0.00  0.00     0.171 C 
HETATM   17  C   UNK     0      44.553  59.647  50.490  0.00  0.00     0.034 C 
ENDBRANCH  15  16
ENDBRANCH  12  15
ENDBRANCH   8   9
ENDBRANCH   5   8
BRANCH   2  18
HETATM   18  C   UNK     0      47.318  55.097  59.966  0.00  0.00     0.186 C 
HETATM   19  O   UNK     0      48.024  55.829  60.972  0.00  0.00    -0.368 OA
HETATM   20  C   UNK     0      47.362  55.811  62.237  0.00  0.00     0.177 C 
HETATM   21  C   UNK     0      47.276  54.376  62.763  0.00  0.00     0.180 C 
HETATM   22  C   UNK     0      46.578  53.468  61.751  0.00  0.00     0.181 C 
HETATM   23  C   UNK     0      47.190  53.616  60.355  0.00  0.00     0.182 C 
BRANCH  20  24
HETATM   24  C   UNK     0      48.151  56.713  63.180  0.00  0.00     0.198 C 
BRANCH  24  25
HETATM   25  O   UNK     0      48.120  58.034  62.671  0.00  0.00    -0.398 OA
HETATM   26  H   UNK     0      47.558  58.564  63.261  0.00  0.00     0.209 HD
ENDBRANCH  24  25
ENDBRANCH  20  24
BRANCH  21  27
HETATM   27  O   UNK     0      46.546  54.368  63.987  0.00  0.00    -0.390 OA
HETATM   28  H   UNK     0      46.005  55.175  64.019  0.00  0.00     0.210 HD
ENDBRANCH  21  27
BRANCH  22  29
HETATM   29  O   UNK     0      46.728  52.118  62.194  0.00  0.00    -0.390 OA
HETATM   30  H   UNK     0      46.215  52.024  63.014  0.00  0.00     0.210 HD
ENDBRANCH  22  29
BRANCH  23  31
HETATM   31  O   UNK     0      46.344  52.966  59.407  0.00  0.00    -0.390 OA
HETATM   32  H   UNK     0      45.629  53.579  59.170  0.00  0.00     0.210 HD
ENDBRANCH  23  31
ENDBRANCH   2  18
TORSDOF 10
ENDMDL
MODEL 2
REMARK VINA RESULT:      -7.7     28.471     31.683
REMARK  10 active torsions:
REMARK  status: ('A' for Active; 'I' for Inactive)
REMARK    1  A    between atoms: O_3  and  C_8 
REMARK    2  A    between atoms: O_4  and  C_9 
REMARK    3  A    between atoms: O_5  and  C_10 
REMARK    4  A    between atoms: O_6  and  C_14 
REMARK    5  A    between atoms: O_7  and  C_26 
REMARK    6  A    between atoms: O_7  and  C_27 
REMARK    7  A    between atoms: C_11  and  C_13 
REMARK    8  A    between atoms: C_12  and  C_14 
REMARK    9  A    between atoms: C_17  and  C_19 
REMARK   10  A    between atoms: C_19  and  C_21 
ROOT
HETATM    1 Cl   UNK     0      36.913  56.408  32.524  0.00  0.00    -0.084 Cl
HETATM    2  C   UNK     0      34.422  59.733  30.761  0.00  0.00    -0.026 A 
HETATM    3  C   UNK     0      34.299  58.440  30.252  0.00  0.00     0.019 A 
HETATM    4  C   UNK     0      35.307  59.991  31.806  0.00  0.00     0.011 A 
HETATM    5  C   UNK     0      35.064  57.405  30.789  0.00  0.00    -0.032 A 
HETATM    6  C   UNK     0      36.072  58.957  32.342  0.00  0.00     0.025 A 
HETATM    7  C   UNK     0      35.951  57.664  31.835  0.00  0.00     0.040 A 
ENDROOT
BRANCH   5   8
HETATM    8  C   UNK     0      34.905  56.033  30.217  0.00  0.00     0.078 C 
BRANCH   8   9
HETATM    9  C   UNK     0      35.820  55.749  29.045  0.00  0.00    -0.054 A 
HETATM   10  C   UNK     0      35.466  56.201  27.786  0.00  0.00     0.010 A 
HETATM   11  C   UNK     0      36.309  55.937  26.708  0.00  0.00     0.037 A 
HETATM   12  C   UNK     0      37.493  55.227  26.905  0.00  0.00     0.068 A 
HETATM   13  C   UNK     0      37.834  54.779  28.181  0.00  0.00     0.037 A 
HETATM   14  C   UNK     0      36.990  55.043  29.261  0.00  0.00     0.010 A 
BRANCH  12  15
HETATM   15  O   UNK     0      38.317  54.971  25.851  0.00  0.00    -0.352 OA
BRANCH  15  16
HETATM   16  C   UNK     0      38.668  53.609  25.617  0.00  0.00     0.171 C 
HETATM   17  C   UNK     0      37.649  52.991  24.682  0.00  0.00     0.034 C 
ENDBRANCH  15  16
ENDBRANCH  12  15
ENDBRANCH   8   9
ENDBRANCH   5   8
BRANCH   2  18
HETATM   18  C   UNK     0      33.589  60.857  30.177  0.00  0.00     0.186 C 
HETATM   19  O   UNK     0      34.134  61.182  28.894  0.00  0.00    -0.368 OA
HETATM   20  C   UNK     0      33.371  62.172  28.204  0.00  0.00     0.177 C 
HETATM   21  C   UNK     0      33.380  63.483  28.991  0.00  0.00     0.180 C 
HETATM   22  C   UNK     0      32.860  63.266  30.412  0.00  0.00     0.181 C 
HETATM   23  C   UNK     0      33.571  62.092  31.092  0.00  0.00     0.182 C 
BRANCH  20  24
HETATM   24  C   UNK     0      33.987  62.340  26.818  0.00  0.00     0.198 C 
BRANCH  24  25
HETATM   25  O   UNK     0      32.943  62.552  25.884  0.00  0.00    -0.398 OA
HETATM   26  H   UNK     0      33.069  63.436  25.499  0.00  0.00     0.209 HD
ENDBRANCH  24  25
ENDBRANCH  20  24
BRANCH  21  27
HETATM   27  O   UNK     0      32.552  64.435  28.327  0.00  0.00    -0.390 OA
HETATM   28  H   UNK     0      31.625  64.180  28.473  0.00  0.00     0.210 HD
ENDBRANCH  21  27
BRANCH  22  29
HETATM   29  O   UNK     0      33.100  64.461  31.157  0.00  0.00    -0.390 OA
HETATM   30  H   UNK     0      32.637  64.372  32.006  0.00  0.00     0.210 HD
ENDBRANCH  22  29
BRANCH  23  31
HETATM   31  O   UNK     0      32.875  61.761  32.293  0.00  0.00    -0.390 OA
HETATM   32  H   UNK     0      32.960  60.804  32.437  0.00  0.00     0.210 HD
ENDBRANCH  23  31
ENDBRANCH   2  18
TORSDOF 10
ENDMDL
MODEL 3
REMARK VINA RESULT:      -7.7      3.639      5.894
REMARK  10 active torsions:
REMARK  status: ('A' for Active; 'I' for Inactive)
REMARK    1  A    between atoms: O_3  and  C_8 
REMARK    2  A    between atoms: O_4  and  C_9 
REMARK    3  A    between atoms: O_5  and  C_10 
REMARK    4  A    between atoms: O_6  and  C_14 
REMARK    5  A    between atoms: O_7  and  C_26 
REMARK    6  A    between atoms: O_7  and  C_27 
REMARK    7  A    between atoms: C_11  and  C_13 
REMARK    8  A    between atoms: C_12  and  C_14 
REMARK    9  A    between atoms: C_17  and  C_19 
REMARK   10  A    between atoms: C_19  and  C_21 
ROOT
HETATM    1 Cl   UNK     0      45.626  59.052  50.658  0.00  0.00    -0.084 Cl
HETATM    2  C   UNK     0      47.397  56.618  54.021  0.00  0.00    -0.026 A 
HETATM    3  C   UNK     0      46.692  57.785  54.316  0.00  0.00     0.019 A 
HETATM    4  C   UNK     0      47.550  56.210  52.697  0.00  0.00     0.011 A 
HETATM    5  C   UNK     0      46.141  58.545  53.285  0.00  0.00    -0.032 A 
HETATM    6  C   UNK     0      47.000  56.970  51.666  0.00  0.00     0.025 A 
HETATM    7  C   UNK     0      46.294  58.138  51.960  0.00  0.00     0.040 A 
ENDROOT
BRANCH   5   8
HETATM    8  C   UNK     0      45.393  59.789  53.641  0.00  0.00     0.078 C 
BRANCH   8   9
HETATM    9  C   UNK     0      46.285  60.966  53.970  0.00  0.00    -0.054 A 
HETATM   10  C   UNK     0      46.377  61.399  55.282  0.00  0.00     0.010 A 
HETATM   11  C   UNK     0      47.199  62.485  55.583  0.00  0.00     0.037 A 
HETATM   12  C   UNK     0      47.916  63.120  54.569  0.00  0.00     0.068 A 
HETATM   13  C   UNK     0      47.811  62.670  53.253  0.00  0.00     0.037 A 
HETATM   14  C   UNK     0      46.989  61.584  52.951  0.00  0.00     0.010 A 
BRANCH  12  15
HETATM   15  O   UNK     0      48.719  64.179  54.865  0.00  0.00    -0.352 OA
BRANCH  15  16
HETATM   16  C   UNK     0      48.421  64.907  56.055  0.00  0.00     0.171 C 
HETATM   17  C   UNK     0      48.229  66.367  55.704  0.00  0.00     0.034 C 
ENDBRANCH  15  16
ENDBRANCH  12  15
ENDBRANCH   8   9
ENDBRANCH   5   8
BRANCH   2  18
HETATM   18  C   UNK     0      47.995  55.792  55.143  0.00  0.00     0.186 C 
HETATM   19  O   UNK     0      46.966  55.563  56.111  0.00  0.00    -0.368 OA
HETATM   20  C   UNK     0      47.389  54.712  57.177  0.00  0.00     0.177 C 
HETATM   21  C   UNK     0      48.535  55.369  57.949  0.00  0.00     0.180 C 
HETATM   22  C   UNK     0      49.693  55.714  57.013  0.00  0.00     0.181 C 
HETATM   23  C   UNK     0      49.206  56.487  55.785  0.00  0.00     0.182 C 
BRANCH  20  24
HETATM   24  C   UNK     0      46.178  54.458  58.068  0.00  0.00     0.198 C 
BRANCH  24  25
HETATM   25  O   UNK     0      46.266  53.141  58.583  0.00  0.00    -0.398 OA
HETATM   26  H   UNK     0      47.206  52.894  58.599  0.00  0.00     0.209 HD
ENDBRANCH  24  25
ENDBRANCH  20  24
BRANCH  21  27
HETATM   27  O   UNK     0      48.995  54.474  58.959  0.00  0.00    -0.390 OA
HETATM   28  H   UNK     0      48.630  54.770  59.810  0.00  0.00     0.210 HD
ENDBRANCH  21  27
BRANCH  22  29
HETATM   29  O   UNK     0      50.624  56.516  57.741  0.00  0.00    -0.390 OA
HETATM   30  H   UNK     0      50.244  56.675  58.621  0.00  0.00     0.210 HD
ENDBRANCH  22  29
BRANCH  23  31
HETATM   31  O   UNK     0      50.261  56.547  54.826  0.00  0.00    -0.390 OA
HETATM   32  H   UNK     0      50.108  57.320  54.257  0.00  0.00     0.210 HD
ENDBRANCH  23  31
ENDBRANCH   2  18
TORSDOF 10
ENDMDL
MODEL 4
REMARK VINA RESULT:      -7.4      3.435      5.720
REMARK  10 active torsions:
REMARK  status: ('A' for Active; 'I' for Inactive)
REMARK    1  A    between atoms: O_3  and  C_8 
REMARK    2  A    between atoms: O_4  and  C_9 
REMARK    3  A    between atoms: O_5  and  C_10 
REMARK    4  A    between atoms: O_6  and  C_14 
REMARK    5  A    between atoms: O_7  and  C_26 
REMARK    6  A    between atoms: O_7  and  C_27 
REMARK    7  A    between atoms: C_11  and  C_13 
REMARK    8  A    between atoms: C_12  and  C_14 
REMARK    9  A    between atoms: C_17  and  C_19 
REMARK   10  A    between atoms: C_19  and  C_21 
ROOT
HETATM    1 Cl   UNK     0      46.041  59.133  50.586  0.00  0.00    -0.084 Cl
HETATM    2  C   UNK     0      47.638  56.682  54.023  0.00  0.00    -0.026 A 
HETATM    3  C   UNK     0      47.393  58.042  54.206  0.00  0.00     0.019 A 
HETATM    4  C   UNK     0      47.389  56.087  52.787  0.00  0.00     0.011 A 
HETATM    5  C   UNK     0      46.900  58.809  53.151  0.00  0.00    -0.032 A 
HETATM    6  C   UNK     0      46.897  56.854  51.731  0.00  0.00     0.025 A 
HETATM    7  C   UNK     0      46.652  58.215  51.914  0.00  0.00     0.040 A 
ENDROOT
BRANCH   5   8
HETATM    8  C   UNK     0      46.651  60.264  53.387  0.00  0.00     0.078 C 
BRANCH   8   9
HETATM    9  C   UNK     0      45.227  60.583  53.790  0.00  0.00    -0.054 A 
HETATM   10  C   UNK     0      44.341  61.046  52.833  0.00  0.00     0.010 A 
HETATM   11  C   UNK     0      43.030  61.341  53.207  0.00  0.00     0.037 A 
HETATM   12  C   UNK     0      42.626  61.167  54.531  0.00  0.00     0.068 A 
HETATM   13  C   UNK     0      43.533  60.700  55.481  0.00  0.00     0.037 A 
HETATM   14  C   UNK     0      44.844  60.405  55.108  0.00  0.00     0.010 A 
BRANCH  12  15
HETATM   15  O   UNK     0      41.345  61.453  54.893  0.00  0.00    -0.352 OA
BRANCH  15  16
HETATM   16  C   UNK     0      40.654  60.472  55.665  0.00  0.00     0.171 C 
HETATM   17  C   UNK     0      39.563  59.857  54.815  0.00  0.00     0.034 C 
ENDBRANCH  15  16
ENDBRANCH  12  15
ENDBRANCH   8   9
ENDBRANCH   5   8
BRANCH   2  18
HETATM   18  C   UNK     0      48.173  55.848  55.171  0.00  0.00     0.186 C 
HETATM   19  O   UNK     0      47.100  55.637  56.093  0.00  0.00    -0.368 OA
HETATM   20  C   UNK     0      47.462  54.782  57.177  0.00  0.00     0.177 C 
HETATM   21  C   UNK     0      48.583  55.422  57.998  0.00  0.00     0.180 C 
HETATM   22  C   UNK     0      49.787  55.746  57.113  0.00  0.00     0.181 C 
HETATM   23  C   UNK     0      49.366  56.525  55.864  0.00  0.00     0.182 C 
BRANCH  20  24
HETATM   24  C   UNK     0      46.209  54.549  58.016  0.00  0.00     0.198 C 
BRANCH  24  25
HETATM   25  O   UNK     0      46.376  55.196  59.265  0.00  0.00    -0.398 OA
HETATM   26  H   UNK     0      45.592  54.999  59.805  0.00  0.00     0.209 HD
ENDBRANCH  24  25
ENDBRANCH  20  24
BRANCH  21  27
HETATM   27  O   UNK     0      48.984  54.522  59.028  0.00  0.00    -0.390 OA
HETATM   28  H   UNK     0      49.709  53.975  58.683  0.00  0.00     0.210 HD
ENDBRANCH  21  27
BRANCH  22  29
HETATM   29  O   UNK     0      50.698  56.535  57.880  0.00  0.00    -0.390 OA
HETATM   30  H   UNK     0      50.283  56.701  58.743  0.00  0.00     0.210 HD
ENDBRANCH  22  29
BRANCH  23  31
HETATM   31  O   UNK     0      50.462  56.565  54.952  0.00  0.00    -0.390 OA
HETATM   32  H   UNK     0      51.285  56.500  55.465  0.00  0.00     0.210 HD
ENDBRANCH  23  31
ENDBRANCH   2  18
TORSDOF 10
ENDMDL
MODEL 5
REMARK VINA RESULT:      -7.3     12.031     15.072
REMARK  10 active torsions:
REMARK  status: ('A' for Active; 'I' for Inactive)
REMARK    1  A    between atoms: O_3  and  C_8 
REMARK    2  A    between atoms: O_4  and  C_9 
REMARK    3  A    between atoms: O_5  and  C_10 
REMARK    4  A    between atoms: O_6  and  C_14 
REMARK    5  A    between atoms: O_7  and  C_26 
REMARK    6  A    between atoms: O_7  and  C_27 
REMARK    7  A    between atoms: C_11  and  C_13 
REMARK    8  A    between atoms: C_12  and  C_14 
REMARK    9  A    between atoms: C_17  and  C_19 
REMARK   10  A    between atoms: C_19  and  C_21 
ROOT
HETATM    1 Cl   UNK     0      39.637  63.235  50.942  0.00  0.00    -0.084 Cl
HETATM    2  C   UNK     0      36.835  64.970  54.025  0.00  0.00    -0.026 A 
HETATM    3  C   UNK     0      37.457  63.748  54.275  0.00  0.00     0.019 A 
HETATM    4  C   UNK     0      37.079  65.647  52.832  0.00  0.00     0.011 A 
HETATM    5  C   UNK     0      38.325  63.202  53.330  0.00  0.00    -0.032 A 
HETATM    6  C   UNK     0      37.946  65.102  51.886  0.00  0.00     0.025 A 
HETATM    7  C   UNK     0      38.569  63.879  52.135  0.00  0.00     0.040 A 
ENDROOT
BRANCH   5   8
HETATM    8  C   UNK     0      38.973  61.890  53.634  0.00  0.00     0.078 C 
BRANCH   8   9
HETATM    9  C   UNK     0      38.006  60.726  53.679  0.00  0.00    -0.054 A 
HETATM   10  C   UNK     0      37.780  60.081  54.883  0.00  0.00     0.010 A 
HETATM   11  C   UNK     0      36.890  59.008  54.922  0.00  0.00     0.037 A 
HETATM   12  C   UNK     0      36.240  58.597  53.758  0.00  0.00     0.068 A 
HETATM   13  C   UNK     0      36.480  59.259  52.554  0.00  0.00     0.037 A 
HETATM   14  C   UNK     0      37.371  60.333  52.514  0.00  0.00     0.010 A 
BRANCH  12  15
HETATM   15  O   UNK     0      35.369  57.551  53.799  0.00  0.00    -0.352 OA
BRANCH  15  16
HETATM   16  C   UNK     0      35.745  56.425  54.590  0.00  0.00     0.171 C 
HETATM   17  C   UNK     0      34.937  55.223  54.151  0.00  0.00     0.034 C 
ENDBRANCH  15  16
ENDBRANCH  12  15
ENDBRANCH   8   9
ENDBRANCH   5   8
BRANCH   2  18
HETATM   18  C   UNK     0      35.892  65.564  55.054  0.00  0.00     0.186 C 
HETATM   19  O   UNK     0      35.365  64.486  55.834  0.00  0.00    -0.368 OA
HETATM   20  C   UNK     0      34.530  64.933  56.902  0.00  0.00     0.177 C 
HETATM   21  C   UNK     0      33.308  65.663  56.342  0.00  0.00     0.180 C 
HETATM   22  C   UNK     0      33.734  66.822  55.440  0.00  0.00     0.181 C 
HETATM   23  C   UNK     0      34.759  66.368  54.397  0.00  0.00     0.182 C 
BRANCH  20  24
HETATM   24  C   UNK     0      34.132  63.707  57.717  0.00  0.00     0.198 C 
BRANCH  24  25
HETATM   25  O   UNK     0      32.757  63.445  57.495  0.00  0.00    -0.398 OA
HETATM   26  H   UNK     0      32.515  62.672  58.033  0.00  0.00     0.209 HD
ENDBRANCH  24  25
ENDBRANCH  20  24
BRANCH  21  27
HETATM   27  O   UNK     0      32.527  66.169  57.421  0.00  0.00    -0.390 OA
HETATM   28  H   UNK     0      31.633  65.792  57.347  0.00  0.00     0.210 HD
ENDBRANCH  21  27
BRANCH  22  29
HETATM   29  O   UNK     0      32.569  67.316  54.777  0.00  0.00    -0.390 OA
HETATM   30  H   UNK     0      31.799  67.047  55.305  0.00  0.00     0.210 HD
ENDBRANCH  22  29
BRANCH  23  31
HETATM   31  O   UNK     0      35.321  67.519  53.768  0.00  0.00    -0.390 OA
HETATM   32  H   UNK     0      36.148  67.741  54.228  0.00  0.00     0.210 HD
ENDBRANCH  23  31
ENDBRANCH   2  18
TORSDOF 10
ENDMDL
MODEL 6
REMARK VINA RESULT:      -7.3      4.925      7.683
REMARK  10 active torsions:
REMARK  status: ('A' for Active; 'I' for Inactive)
REMARK    1  A    between atoms: O_3  and  C_8 
REMARK    2  A    between atoms: O_4  and  C_9 
REMARK    3  A    between atoms: O_5  and  C_10 
REMARK    4  A    between atoms: O_6  and  C_14 
REMARK    5  A    between atoms: O_7  and  C_26 
REMARK    6  A    between atoms: O_7  and  C_27 
REMARK    7  A    between atoms: C_11  and  C_13 
REMARK    8  A    between atoms: C_12  and  C_14 
REMARK    9  A    between atoms: C_17  and  C_19 
REMARK   10  A    between atoms: C_19  and  C_21 
ROOT
HETATM    1 Cl   UNK     0      43.329  61.809  51.878  0.00  0.00    -0.084 Cl
HETATM    2  C   UNK     0      46.202  58.772  53.579  0.00  0.00    -0.026 A 
HETATM    3  C   UNK     0      45.510  59.620  54.443  0.00  0.00     0.019 A 
HETATM    4  C   UNK     0      46.005  58.864  52.202  0.00  0.00     0.011 A 
HETATM    5  C   UNK     0      44.620  60.563  53.929  0.00  0.00    -0.032 A 
HETATM    6  C   UNK     0      45.115  59.807  51.688  0.00  0.00     0.025 A 
HETATM    7  C   UNK     0      44.422  60.656  52.551  0.00  0.00     0.040 A 
ENDROOT
BRANCH   5   8
HETATM    8  C   UNK     0      43.897  61.454  54.887  0.00  0.00     0.078 C 
BRANCH   8   9
HETATM    9  C   UNK     0      42.620  60.854  55.434  0.00  0.00    -0.054 A 
HETATM   10  C   UNK     0      41.429  61.070  54.763  0.00  0.00     0.010 A 
HETATM   11  C   UNK     0      40.253  60.519  55.270  0.00  0.00     0.037 A 
HETATM   12  C   UNK     0      40.286  59.759  56.439  0.00  0.00     0.068 A 
HETATM   13  C   UNK     0      41.495  59.552  57.103  0.00  0.00     0.037 A 
HETATM   14  C   UNK     0      42.672  60.104  56.596  0.00  0.00     0.010 A 
BRANCH  12  15
HETATM   15  O   UNK     0      39.137  59.219  56.932  0.00  0.00    -0.352 OA
BRANCH  15  16
HETATM   16  C   UNK     0      37.909  59.695  56.383  0.00  0.00     0.171 C 
HETATM   17  C   UNK     0      37.216  60.566  57.409  0.00  0.00     0.034 C 
ENDBRANCH  15  16
ENDBRANCH  12  15
ENDBRANCH   8   9
ENDBRANCH   5   8
BRANCH   2  18
HETATM   18  C   UNK     0      47.169  57.747  54.139  0.00  0.00     0.186 C 
HETATM   19  O   UNK     0      46.531  57.107  55.248  0.00  0.00    -0.368 OA
HETATM   20  C   UNK     0      47.315  56.051  55.804  0.00  0.00     0.177 C 
HETATM   21  C   UNK     0      48.628  56.608  56.357  0.00  0.00     0.180 C 
HETATM   22  C   UNK     0      49.395  57.366  55.274  0.00  0.00     0.181 C 
HETATM   23  C   UNK     0      48.499  58.387  54.567  0.00  0.00     0.182 C 
BRANCH  20  24
HETATM   24  C   UNK     0      46.480  55.385  56.892  0.00  0.00     0.198 C 
BRANCH  24  25
HETATM   25  O   UNK     0      47.100  54.163  57.251  0.00  0.00    -0.398 OA
HETATM   26  H   UNK     0      47.394  53.730  56.431  0.00  0.00     0.209 HD
ENDBRANCH  24  25
ENDBRANCH  20  24
BRANCH  21  27
HETATM   27  O   UNK     0      49.429  55.532  56.837  0.00  0.00    -0.390 OA
HETATM   28  H   UNK     0      48.905  55.033  57.486  0.00  0.00     0.210 HD
ENDBRANCH  21  27
BRANCH  22  29
HETATM   29  O   UNK     0      50.486  58.045  55.899  0.00  0.00    -0.390 OA
HETATM   30  H   UNK     0      51.054  58.393  55.191  0.00  0.00     0.210 HD
ENDBRANCH  22  29
BRANCH  23  31
HETATM   31  O   UNK     0      49.171  58.868  53.404  0.00  0.00    -0.390 OA
HETATM   32  H   UNK     0      49.469  59.776  53.581  0.00  0.00     0.210 HD
ENDBRANCH  23  31
ENDBRANCH   2  18
TORSDOF 10
ENDMDL
MODEL 7
REMARK VINA RESULT:      -7.2     11.565     13.840
REMARK  10 active torsions:
REMARK  status: ('A' for Active; 'I' for Inactive)
REMARK    1  A    between atoms: O_3  and  C_8 
REMARK    2  A    between atoms: O_4  and  C_9 
REMARK    3  A    between atoms: O_5  and  C_10 
REMARK    4  A    between atoms: O_6  and  C_14 
REMARK    5  A    between atoms: O_7  and  C_26 
REMARK    6  A    between atoms: O_7  and  C_27 
REMARK    7  A    between atoms: C_11  and  C_13 
REMARK    8  A    between atoms: C_12  and  C_14 
REMARK    9  A    between atoms: C_17  and  C_19 
REMARK   10  A    between atoms: C_19  and  C_21 
ROOT
HETATM    1 Cl   UNK     0      40.495  64.847  51.300  0.00  0.00    -0.084 Cl
HETATM    2  C   UNK     0      37.613  64.500  54.756  0.00  0.00    -0.026 A 
HETATM    3  C   UNK     0      37.523  63.599  53.695  0.00  0.00     0.019 A 
HETATM    4  C   UNK     0      38.587  65.497  54.745  0.00  0.00     0.011 A 
HETATM    5  C   UNK     0      38.408  63.697  52.622  0.00  0.00    -0.032 A 
HETATM    6  C   UNK     0      39.472  65.595  53.672  0.00  0.00     0.025 A 
HETATM    7  C   UNK     0      39.383  64.695  52.610  0.00  0.00     0.040 A 
ENDROOT
BRANCH   5   8
HETATM    8  C   UNK     0      38.280  62.714  51.503  0.00  0.00     0.078 C 
BRANCH   8   9
HETATM    9  C   UNK     0      37.926  61.314  51.958  0.00  0.00    -0.054 A 
HETATM   10  C   UNK     0      38.940  60.436  52.295  0.00  0.00     0.010 A 
HETATM   11  C   UNK     0      38.612  59.146  52.712  0.00  0.00     0.037 A 
HETATM   12  C   UNK     0      37.275  58.755  52.786  0.00  0.00     0.068 A 
HETATM   13  C   UNK     0      36.266  59.654  52.441  0.00  0.00     0.037 A 
HETATM   14  C   UNK     0      36.594  60.944  52.024  0.00  0.00     0.010 A 
BRANCH  12  15
HETATM   15  O   UNK     0      36.957  57.496  53.195  0.00  0.00    -0.352 OA
BRANCH  15  16
HETATM   16  C   UNK     0      35.950  57.375  54.198  0.00  0.00     0.171 C 
HETATM   17  C   UNK     0      35.529  55.924  54.300  0.00  0.00     0.034 C 
ENDBRANCH  15  16
ENDBRANCH  12  15
ENDBRANCH   8   9
ENDBRANCH   5   8
BRANCH   2  18
HETATM   18  C   UNK     0      36.651  64.392  55.923  0.00  0.00     0.186 C 
HETATM   19  O   UNK     0      36.574  63.014  56.298  0.00  0.00    -0.368 OA
HETATM   20  C   UNK     0      35.764  62.799  57.453  0.00  0.00     0.177 C 
HETATM   21  C   UNK     0      34.322  63.223  57.168  0.00  0.00     0.180 C 
HETATM   22  C   UNK     0      34.265  64.679  56.706  0.00  0.00     0.181 C 
HETATM   23  C   UNK     0      35.260  64.942  55.572  0.00  0.00     0.182 C 
BRANCH  20  24
HETATM   24  C   UNK     0      35.858  61.319  57.811  0.00  0.00     0.198 C 
BRANCH  24  25
HETATM   25  O   UNK     0      36.152  60.589  56.634  0.00  0.00    -0.398 OA
HETATM   26  H   UNK     0      37.116  60.611  56.507  0.00  0.00     0.209 HD
ENDBRANCH  24  25
ENDBRANCH  20  24
BRANCH  21  27
HETATM   27  O   UNK     0      33.545  63.074  58.354  0.00  0.00    -0.390 OA
HETATM   28  H   UNK     0      32.606  63.110  58.104  0.00  0.00     0.210 HD
ENDBRANCH  21  27
BRANCH  22  29
HETATM   29  O   UNK     0      32.939  64.944  56.245  0.00  0.00    -0.390 OA
HETATM   30  H   UNK     0      32.860  65.906  56.129  0.00  0.00     0.210 HD
ENDBRANCH  22  29
BRANCH  23  31
HETATM   31  O   UNK     0      35.363  66.350  55.364  0.00  0.00    -0.390 OA
HETATM   32  H   UNK     0      34.478  66.737  55.472  0.00  0.00     0.210 HD
ENDBRANCH  23  31
ENDBRANCH   2  18
TORSDOF 10
ENDMDL
MODEL 8
REMARK VINA RESULT:      -7.2     28.380     31.055
REMARK  10 active torsions:
REMARK  status: ('A' for Active; 'I' for Inactive)
REMARK    1  A    between atoms: O_3  and  C_8 
REMARK    2  A    between atoms: O_4  and  C_9 
REMARK    3  A    between atoms: O_5  and  C_10 
REMARK    4  A    between atoms: O_6  and  C_14 
REMARK    5  A    between atoms: O_7  and  C_26 
REMARK    6  A    between atoms: O_7  and  C_27 
REMARK    7  A    between atoms: C_11  and  C_13 
REMARK    8  A    between atoms: C_12  and  C_14 
REMARK    9  A    between atoms: C_17  and  C_19 
REMARK   10  A    between atoms: C_19  and  C_21 
ROOT
HETATM    1 Cl   UNK     0      36.447  56.238  32.577  0.00  0.00    -0.084 Cl
HETATM    2  C   UNK     0      35.125  60.194  30.854  0.00  0.00    -0.026 A 
HETATM    3  C   UNK     0      34.737  59.009  30.228  0.00  0.00     0.019 A 
HETATM    4  C   UNK     0      35.913  60.152  32.003  0.00  0.00     0.011 A 
HETATM    5  C   UNK     0      35.140  57.781  30.752  0.00  0.00    -0.032 A 
HETATM    6  C   UNK     0      36.316  58.924  32.526  0.00  0.00     0.025 A 
HETATM    7  C   UNK     0      35.929  57.739  31.901  0.00  0.00     0.040 A 
ENDROOT
BRANCH   5   8
HETATM    8  C   UNK     0      34.705  56.534  30.052  0.00  0.00     0.078 C 
BRANCH   8   9
HETATM    9  C   UNK     0      35.619  56.117  28.920  0.00  0.00    -0.054 A 
HETATM   10  C   UNK     0      36.689  55.281  29.189  0.00  0.00     0.010 A 
HETATM   11  C   UNK     0      37.531  54.899  28.145  0.00  0.00     0.037 A 
HETATM   12  C   UNK     0      37.290  55.358  26.850  0.00  0.00     0.068 A 
HETATM   13  C   UNK     0      36.207  56.200  26.598  0.00  0.00     0.037 A 
HETATM   14  C   UNK     0      35.364  56.582  27.642  0.00  0.00     0.010 A 
BRANCH  12  15
HETATM   15  O   UNK     0      38.113  54.982  25.831  0.00  0.00    -0.352 OA
BRANCH  15  16
HETATM   16  C   UNK     0      38.412  53.592  25.718  0.00  0.00     0.171 C 
HETATM   17  C   UNK     0      37.351  52.929  24.865  0.00  0.00     0.034 C 
ENDBRANCH  15  16
ENDBRANCH  12  15
ENDBRANCH   8   9
ENDBRANCH   5   8
BRANCH   2  18
HETATM   18  C   UNK     0      34.686  61.529  30.285  0.00  0.00     0.186 C 
HETATM   19  O   UNK     0      35.722  62.479  30.554  0.00  0.00    -0.368 OA
HETATM   20  C   UNK     0      35.461  63.760  29.980  0.00  0.00     0.177 C 
HETATM   21  C   UNK     0      34.193  64.359  30.592  0.00  0.00     0.180 C 
HETATM   22  C   UNK     0      33.005  63.413  30.415  0.00  0.00     0.181 C 
HETATM   23  C   UNK     0      33.348  61.996  30.882  0.00  0.00     0.182 C 
BRANCH  20  24
HETATM   24  C   UNK     0      36.682  64.635  30.240  0.00  0.00     0.198 C 
BRANCH  24  25
HETATM   25  O   UNK     0      36.397  65.495  31.329  0.00  0.00    -0.398 OA
HETATM   26  H   UNK     0      36.464  66.410  31.006  0.00  0.00     0.209 HD
ENDBRANCH  24  25
ENDBRANCH  20  24
BRANCH  21  27
HETATM   27  O   UNK     0      33.905  65.601  29.954  0.00  0.00    -0.390 OA
HETATM   28  H   UNK     0      33.328  66.115  30.543  0.00  0.00     0.210 HD
ENDBRANCH  21  27
BRANCH  22  29
HETATM   29  O   UNK     0      31.919  63.919  31.193  0.00  0.00    -0.390 OA
HETATM   30  H   UNK     0      31.250  64.254  30.572  0.00  0.00     0.210 HD
ENDBRANCH  22  29
BRANCH  23  31
HETATM   31  O   UNK     0      32.320  61.104  30.452  0.00  0.00    -0.390 OA
HETATM   32  H   UNK     0      31.464  61.476  30.724  0.00  0.00     0.210 HD
ENDBRANCH  23  31
ENDBRANCH   2  18
TORSDOF 10
ENDMDL
MODEL 9
REMARK VINA RESULT:      -7.2     31.467     34.063
REMARK  10 active torsions:
REMARK  status: ('A' for Active; 'I' for Inactive)
REMARK    1  A    between atoms: O_3  and  C_8 
REMARK    2  A    between atoms: O_4  and  C_9 
REMARK    3  A    between atoms: O_5  and  C_10 
REMARK    4  A    between atoms: O_6  and  C_14 
REMARK    5  A    between atoms: O_7  and  C_26 
REMARK    6  A    between atoms: O_7  and  C_27 
REMARK    7  A    between atoms: C_11  and  C_13 
REMARK    8  A    between atoms: C_12  and  C_14 
REMARK    9  A    between atoms: C_17  and  C_19 
REMARK   10  A    between atoms: C_19  and  C_21 
ROOT
HETATM    1 Cl   UNK     0      51.387  26.156  55.374  0.00  0.00    -0.084 Cl
HETATM    2  C   UNK     0      48.786  24.305  58.564  0.00  0.00    -0.026 A 
HETATM    3  C   UNK     0      48.607  23.932  57.232  0.00  0.00     0.019 A 
HETATM    4  C   UNK     0      49.761  25.241  58.903  0.00  0.00     0.011 A 
HETATM    5  C   UNK     0      49.405  24.498  56.238  0.00  0.00    -0.032 A 
HETATM    6  C   UNK     0      50.558  25.807  57.909  0.00  0.00     0.025 A 
HETATM    7  C   UNK     0      50.381  25.435  56.576  0.00  0.00     0.040 A 
ENDROOT
BRANCH   5   8
HETATM    8  C   UNK     0      49.183  24.073  54.822  0.00  0.00     0.078 C 
BRANCH   8   9
HETATM    9  C   UNK     0      49.641  22.660  54.528  0.00  0.00    -0.054 A 
HETATM   10  C   UNK     0      48.731  21.622  54.621  0.00  0.00     0.010 A 
HETATM   11  C   UNK     0      49.154  20.321  54.352  0.00  0.00     0.037 A 
HETATM   12  C   UNK     0      50.480  20.079  53.994  0.00  0.00     0.068 A 
HETATM   13  C   UNK     0      51.384  21.138  53.906  0.00  0.00     0.037 A 
HETATM   14  C   UNK     0      50.961  22.440  54.176  0.00  0.00     0.010 A 
BRANCH  12  15
HETATM   15  O   UNK     0      50.892  18.808  53.730  0.00  0.00    -0.352 OA
BRANCH  15  16
HETATM   16  C   UNK     0      50.272  17.758  54.470  0.00  0.00     0.171 C 
HETATM   17  C   UNK     0      49.699  16.745  53.503  0.00  0.00     0.034 C 
ENDBRANCH  15  16
ENDBRANCH  12  15
ENDBRANCH   8   9
ENDBRANCH   5   8
BRANCH   2  18
HETATM   18  C   UNK     0      47.918  23.689  59.644  0.00  0.00     0.186 C 
HETATM   19  O   UNK     0      48.409  22.369  59.896  0.00  0.00    -0.368 OA
HETATM   20  C   UNK     0      47.725  21.719  60.967  0.00  0.00     0.177 C 
HETATM   21  C   UNK     0      46.247  21.541  60.614  0.00  0.00     0.180 C 
HETATM   22  C   UNK     0      45.605  22.886  60.272  0.00  0.00     0.181 C 
HETATM   23  C   UNK     0      46.436  23.653  59.240  0.00  0.00     0.182 C 
BRANCH  20  24
HETATM   24  C   UNK     0      48.414  20.379  61.206  0.00  0.00     0.198 C 
BRANCH  24  25
HETATM   25  O   UNK     0      47.682  19.369  60.534  0.00  0.00    -0.398 OA
HETATM   26  H   UNK     0      46.994  19.051  61.143  0.00  0.00     0.209 HD
ENDBRANCH  24  25
ENDBRANCH  20  24
BRANCH  21  27
HETATM   27  O   UNK     0      45.565  20.962  61.723  0.00  0.00    -0.390 OA
HETATM   28  H   UNK     0      45.323  21.678  62.334  0.00  0.00     0.210 HD
ENDBRANCH  21  27
BRANCH  22  29
HETATM   29  O   UNK     0      44.304  22.631  59.739  0.00  0.00    -0.390 OA
HETATM   30  H   UNK     0      43.984  23.461  59.348  0.00  0.00     0.210 HD
ENDBRANCH  22  29
BRANCH  23  31
HETATM   31  O   UNK     0      45.952  24.993  59.158  0.00  0.00    -0.390 OA
HETATM   32  H   UNK     0      46.381  25.423  58.399  0.00  0.00     0.210 HD
ENDBRANCH  23  31
ENDBRANCH   2  18
TORSDOF 10
ENDMDL
