REMARK VINA RESULT:      -7.8      0.000      0.000
REMARK  10 active torsions:
REMARK  status: ('A' for Active; 'I' for Inactive)
REMARK    1  A    between atoms: O_3  and  C_8 
REMARK    2  A    between atoms: O_4  and  C_9 
REMARK    3  A    between atoms: O_5  and  C_10 
REMARK    4  A    between atoms: O_6  and  C_14 
REMARK    5  A    between atoms: O_7  and  C_26 
REMARK    6  A    between atoms: O_7  and  C_27 
REMARK    7  A    between atoms: C_11  and  C_13 
REMARK    8  A    between atoms: C_12  and  C_14 
REMARK    9  A    between atoms: C_17  and  C_19 
REMARK   10  A    between atoms: C_19  and  C_21 
ROOT
HETATM    1 Cl   UNK     0      50.312  55.815  54.782  0.00  0.00    -0.084 Cl
HETATM    2  C   UNK     0      48.063  55.276  58.657  0.00  0.00    -0.026 A 
HETATM    3  C   UNK     0      47.403  55.068  57.447  0.00  0.00     0.019 A 
HETATM    4  C   UNK     0      49.407  55.646  58.666  0.00  0.00     0.011 A 
HETATM    5  C   UNK     0      48.088  55.232  56.243  0.00  0.00    -0.032 A 
HETATM    6  C   UNK     0      50.092  55.811  57.463  0.00  0.00     0.025 A 
HETATM    7  C   UNK     0      49.432  55.603  56.251  0.00  0.00     0.040 A 
ENDROOT
BRANCH   5   8
HETATM    8  C   UNK     0      47.346  55.000  54.966  0.00  0.00     0.078 C 
BRANCH   8   9
HETATM    9  C   UNK     0      47.100  56.261  54.164  0.00  0.00    -0.054 A 
HETATM   10  C   UNK     0      46.625  57.390  54.808  0.00  0.00     0.010 A 
HETATM   11  C   UNK     0      46.398  58.549  54.068  0.00  0.00     0.037 A 
HETATM   12  C   UNK     0      46.650  58.562  52.696  0.00  0.00     0.068 A 
HETATM   13  C   UNK     0      47.128  57.415  52.064  0.00  0.00     0.037 A 
HETATM   14  C   UNK     0      47.355  56.254  52.804  0.00  0.00     0.010 A 
BRANCH  12  15
HETATM   15  O   UNK     0      46.430  59.696  51.975  0.00  0.00    -0.352 OA
BRANCH  15  16
HETATM   16  C   UNK     0      46.058  59.533  50.607  0.00  0.00     0.171 C 
HETATM   17  C   UNK     0      44.553  59.647  50.490  0.00  0.00     0.034 C 
ENDBRANCH  15  16
ENDBRANCH  12  15
ENDBRANCH   8   9
ENDBRANCH   5   8
BRANCH   2  18
HETATM   18  C   UNK     0      47.318  55.097  59.966  0.00  0.00     0.186 C 
HETATM   19  O   UNK     0      48.024  55.829  60.972  0.00  0.00    -0.368 OA
HETATM   20  C   UNK     0      47.362  55.811  62.237  0.00  0.00     0.177 C 
HETATM   21  C   UNK     0      47.276  54.376  62.763  0.00  0.00     0.180 C 
HETATM   22  C   UNK     0      46.578  53.468  61.751  0.00  0.00     0.181 C 
HETATM   23  C   UNK     0      47.190  53.616  60.355  0.00  0.00     0.182 C 
BRANCH  20  24
HETATM   24  C   UNK     0      48.151  56.713  63.180  0.00  0.00     0.198 C 
BRANCH  24  25
HETATM   25  O   UNK     0      48.120  58.034  62.671  0.00  0.00    -0.398 OA
HETATM   26  H   UNK     0      47.558  58.564  63.261  0.00  0.00     0.209 HD
ENDBRANCH  24  25
ENDBRANCH  20  24
BRANCH  21  27
HETATM   27  O   UNK     0      46.546  54.368  63.987  0.00  0.00    -0.390 OA
HETATM   28  H   UNK     0      46.005  55.175  64.019  0.00  0.00     0.210 HD
ENDBRANCH  21  27
BRANCH  22  29
HETATM   29  O   UNK     0      46.728  52.118  62.194  0.00  0.00    -0.390 OA
HETATM   30  H   UNK     0      46.215  52.024  63.014  0.00  0.00     0.210 HD
ENDBRANCH  22  29
BRANCH  23  31
HETATM   31  O   UNK     0      46.344  52.966  59.407  0.00  0.00    -0.390 OA
HETATM   32  H   UNK     0      45.629  53.579  59.170  0.00  0.00     0.210 HD
ENDBRANCH  23  31
ENDBRANCH   2  18
TORSDOF 10
