REMARK VINA RESULT:      -7.2     11.565     13.840
REMARK  10 active torsions:
REMARK  status: ('A' for Active; 'I' for Inactive)
REMARK    1  A    between atoms: O_3  and  C_8 
REMARK    2  A    between atoms: O_4  and  C_9 
REMARK    3  A    between atoms: O_5  and  C_10 
REMARK    4  A    between atoms: O_6  and  C_14 
REMARK    5  A    between atoms: O_7  and  C_26 
REMARK    6  A    between atoms: O_7  and  C_27 
REMARK    7  A    between atoms: C_11  and  C_13 
REMARK    8  A    between atoms: C_12  and  C_14 
REMARK    9  A    between atoms: C_17  and  C_19 
REMARK   10  A    between atoms: C_19  and  C_21 
ROOT
HETATM    1 Cl   UNK     0      40.495  64.847  51.300  0.00  0.00    -0.084 Cl
HETATM    2  C   UNK     0      37.613  64.500  54.756  0.00  0.00    -0.026 A 
HETATM    3  C   UNK     0      37.523  63.599  53.695  0.00  0.00     0.019 A 
HETATM    4  C   UNK     0      38.587  65.497  54.745  0.00  0.00     0.011 A 
HETATM    5  C   UNK     0      38.408  63.697  52.622  0.00  0.00    -0.032 A 
HETATM    6  C   UNK     0      39.472  65.595  53.672  0.00  0.00     0.025 A 
HETATM    7  C   UNK     0      39.383  64.695  52.610  0.00  0.00     0.040 A 
ENDROOT
BRANCH   5   8
HETATM    8  C   UNK     0      38.280  62.714  51.503  0.00  0.00     0.078 C 
BRANCH   8   9
HETATM    9  C   UNK     0      37.926  61.314  51.958  0.00  0.00    -0.054 A 
HETATM   10  C   UNK     0      38.940  60.436  52.295  0.00  0.00     0.010 A 
HETATM   11  C   UNK     0      38.612  59.146  52.712  0.00  0.00     0.037 A 
HETATM   12  C   UNK     0      37.275  58.755  52.786  0.00  0.00     0.068 A 
HETATM   13  C   UNK     0      36.266  59.654  52.441  0.00  0.00     0.037 A 
HETATM   14  C   UNK     0      36.594  60.944  52.024  0.00  0.00     0.010 A 
BRANCH  12  15
HETATM   15  O   UNK     0      36.957  57.496  53.195  0.00  0.00    -0.352 OA
BRANCH  15  16
HETATM   16  C   UNK     0      35.950  57.375  54.198  0.00  0.00     0.171 C 
HETATM   17  C   UNK     0      35.529  55.924  54.300  0.00  0.00     0.034 C 
ENDBRANCH  15  16
ENDBRANCH  12  15
ENDBRANCH   8   9
ENDBRANCH   5   8
BRANCH   2  18
HETATM   18  C   UNK     0      36.651  64.392  55.923  0.00  0.00     0.186 C 
HETATM   19  O   UNK     0      36.574  63.014  56.298  0.00  0.00    -0.368 OA
HETATM   20  C   UNK     0      35.764  62.799  57.453  0.00  0.00     0.177 C 
HETATM   21  C   UNK     0      34.322  63.223  57.168  0.00  0.00     0.180 C 
HETATM   22  C   UNK     0      34.265  64.679  56.706  0.00  0.00     0.181 C 
HETATM   23  C   UNK     0      35.260  64.942  55.572  0.00  0.00     0.182 C 
BRANCH  20  24
HETATM   24  C   UNK     0      35.858  61.319  57.811  0.00  0.00     0.198 C 
BRANCH  24  25
HETATM   25  O   UNK     0      36.152  60.589  56.634  0.00  0.00    -0.398 OA
HETATM   26  H   UNK     0      37.116  60.611  56.507  0.00  0.00     0.209 HD
ENDBRANCH  24  25
ENDBRANCH  20  24
BRANCH  21  27
HETATM   27  O   UNK     0      33.545  63.074  58.354  0.00  0.00    -0.390 OA
HETATM   28  H   UNK     0      32.606  63.110  58.104  0.00  0.00     0.210 HD
ENDBRANCH  21  27
BRANCH  22  29
HETATM   29  O   UNK     0      32.939  64.944  56.245  0.00  0.00    -0.390 OA
HETATM   30  H   UNK     0      32.860  65.906  56.129  0.00  0.00     0.210 HD
ENDBRANCH  22  29
BRANCH  23  31
HETATM   31  O   UNK     0      35.363  66.350  55.364  0.00  0.00    -0.390 OA
HETATM   32  H   UNK     0      34.478  66.737  55.472  0.00  0.00     0.210 HD
ENDBRANCH  23  31
ENDBRANCH   2  18
TORSDOF 10
